version 2
run Net10-0-20180225-20:11:08-4196
attr configname Net10
attr datetime 20180225-20:11:08
attr experiment Net10
attr inifile omnetpp.ini
attr iterationvars ""
attr iterationvarsf ""
attr measurement ""
attr network networks.Net10
attr processid 4196
attr repetition 0
attr replication #0
attr resultdir results
attr runnumber 0
attr seedset 0
param **.app.packetLength "uniform(128 byte, 1024 byte)"
param **.destAddresses "\"1 6 8\""
param **.appType "\"App\""
param **.app.packetLength "4096 bytes"

vector 0 Net10.rte[8].app endToEndDelay:vector ETV
attr interpolationmode none
attr title "end-to-end delay of arrived packets, vector"
attr unit s
vector 1 Net10.rte[6].app endToEndDelay:vector ETV
attr interpolationmode none
attr title "end-to-end delay of arrived packets, vector"
attr unit s
vector 2 Net10.rte[1].app endToEndDelay:vector ETV
attr interpolationmode none
attr title "end-to-end delay of arrived packets, vector"
attr unit s
0	15	0.171812545199	0.020581691534
0	33	0.650482829152	0.008773656474
0	40	0.742213725894	0.007249304704
0	116	1.623021488515	0.012676004103
0	120	1.625768971545	0.011766896652
0	217	2.668235720712	0
0	221	2.672668928657	0.008595240107
0	231	2.765538946194	0
0	238	2.802077649295	0.006641304704
0	241	2.893595711505	0
0	252	2.983730841033	0.010949656474
0	267	3.015616178306	0.016228004103
0	278	3.077176243943	0.011318896652
0	293	3.109874486724	0.011836004103
0	304	3.285921681131	0.004725656474
0	315	3.562637826294	0.006710822823
0	326	3.769244264861	0.010966822823
0	347	3.851877650287	0.006655781145
0	387	4.213528396815	0.014644004103
0	484	5.813320256734	0.005785304704
0	521	5.876598151067	0.015910896652
0	535	6.012338049804	0.014389656474
0	561	6.328643035025	0.009782896652
0	571	6.456205153891	0
0	599	6.70813733504	0.006873304704
0	628	7.093659242738	0.005363240107
0	660	7.124228828002	0.003863781145
0	672	7.135843710877	0.013324333675
0	692	7.359522027327	0
0	738	8.227660783017	0.009286896652
0	753	8.3421664519	0.026077691534
0	788	8.669307398689	0
0	825	8.974912300503	0
0	843	9.234826627642	0.005718896652
0	864	9.495556435351	0.011740004103
0	940	11.0008224685	0.004887781145
0	976	11.26932774667	0.008593304704
0	1049	12.051013403516	0.017004333675
0	1064	12.076692306461	0.025501691534
0	1085	12.283665991412	0.009973656474
0	1103	12.410076555804	0
0	1147	13.02057655203	0.026068004103
0	1165	13.093336605604	0.013862822823
0	1198	13.492192055181	0.010860333675
0	1227	13.775789779885	0.009254896652
0	1242	13.826928083463	0.022828004103
0	1293	14.303886666061	0.023308004103
0	1303	14.680989442539	0
0	1317	14.781123319653	0.004063781145
0	1339	14.870497149803	0.021748004103
0	1354	14.908292499836	0.020461691534
0	1357	14.912410414494	0
0	1368	15.065740317209	0.011500333675
0	1379	15.173714871148	0.012310896652
0	1450	15.926813983698	0.016022896652
0	1457	16.217916153551	0.006713304704
0	1464	16.255975123327	0.007059240107
0	1471	16.283312175424	0.006887781145
0	1499	16.904496056686	0.005511781145
0	1517	17.087389678645	0.005334896652
0	1652	18.41214822301	0.003443240107
0	1677	18.549254687026	0.006070822823
0	1702	18.745745069682	0
0	1717	18.855809389445	0.010285691534
0	1734	19.01343716676	0.015468333675
0	1760	19.40552882287	0.016725656474
0	1767	19.644259675969	0.002033304704
0	1796	19.855727621361	0.015685656474
0	1803	19.910497949307	0.003489304704
0	1829	19.981806124545	0.012725656474
0	1836	20.025890490451	0.006937304704
0	1912	20.727484976286	0
0	1951	21.538554593188	0.002571240107
0	1973	21.711718330151	0.008327781145
0	2024	22.500015424754	0.005015781145
0	2039	22.530155857776	0.013012004103
0	2050	22.732627012764	0.013814896652
0	2060	22.769601649109	0.008161304704
0	2067	22.874375179582	0.007759781145
0	2078	22.930123356404	0.010540333675
0	2081	22.984135502065	0
0	2095	23.168367180568	0.006545304704
0	2117	23.366419662464	0.003269656474
0	2128	23.412031767024	0.003340333675
0	2135	23.590173014793	0.005191781145
0	2150	23.600698742753	0.006916004103
0	2196	24.198335699567	0.016166822823
0	2244	24.768754505426	0.008219240107
0	2262	25.116266371058	0.014118822823
0	2276	25.283737995215	0.008009304704
0	2287	25.463182391744	0.009020333675
0	2297	25.679262389864	0.005585304704
0	2330	25.842208106187	0.002953304704
0	2344	26.022196679474	0.002779240107
0	2366	26.210991384075	0.008221691534
0	2384	26.247609507204	0.006764333675
0	2402	26.291903084857	0.010636333675
0	2406	26.295898569923	0.013429656474
0	2513	27.557187385204	0.011542896652
0	2542	28.006127369598	0.007593304704
0	2557	28.105616981736	0.005893691534
0	2593	28.517630919605	0.003649304704
0	2626	28.579772604342	0.013909656474
0	2633	28.603635713716	0.004033304704
0	2672	29.907729170265	0
0	2708	30.594349691314	0.006244004103
0	2748	31.237816162438	0.013660004103
0	2755	31.246328026945	0.006513304704
0	2788	31.668945815012	0.006441304704
0	2839	32.166031763476	0.020836004103
0	2842	32.197986390165	0
0	2849	32.215898897422	0.001843240107
0	2879	32.281147430243	0.019660004103
0	2901	32.419530003217	0.017436333675
0	2927	32.790657942781	0.004063781145
0	2941	32.842197872017	0.010758896652
0	3007	33.36778894775	0.004167781145
0	3010	33.412742098733	0
0	3024	33.546410947784	0.007967781145
0	3035	33.565780437024	0.009590896652
0	3056	34.120591583156	0.003689304704
0	3067	34.142950424366	0.008230822823
0	3110	34.593409755311	0.009014896652
0	3183	35.130033492397	0.008454896652
0	3186	35.166527671786	0
0	3211	35.356619887396	0.003739240107
0	3222	35.506188305576	0.009909656474
0	3233	35.523831110926	0.014662822823
0	3255	35.673192319184	0.014278822823
0	3302	36.292580469484	0
0	3375	37.062726221152	0.014812004103
0	3404	37.419309631042	0.004023781145
0	3422	37.881409833333	0.009324333675
0	3495	38.266266178033	0.016108004103
0	3520	38.716046294968	0.005303781145
0	3571	39.627997200287	0.016230896652
0	3641	40.01125247086	0.006860333675
0	3667	40.330503816727	0.012700004103
0	3670	40.431638670928	0
0	3681	40.587977056785	0.008966822823
0	3692	40.75586728012	0.007957656474
0	3736	40.874051922537	0.019477691534
0	3765	41.566503843466	0.014620004103
0	3783	41.929659069709	0.007599781145
0	3808	42.090232057834	0
0	3856	42.915159722875	0.004951781145
0	3859	42.947155159319	0
0	3929	43.717390030637	0.017036333675
0	3939	43.810403703584	0
0	3979	44.21517517122	0.015430896652
0	3997	44.370629115218	0.008391781145
0	4062	45.136180764948	0.011718896652
0	4197	46.835551117465	0.015180333675
0	4207	46.897263260851	0
0	4246	47.36310109459	0.004015781145
0	4269	47.461869126082	0.005397656474
0	4287	47.514627937642	0.006550896652
0	4298	47.590786632993	0.011173656474
0	4334	48.046871593775	0.005878822823
0	4348	48.301894330659	0.003345304704
0	4486	49.349681928401	0.004665304704
0	4537	49.617105616786	0.010438822823
0	4581	49.776749645398	0.008032221483
0	4599	50.033697765007	0.003287781145
0	4610	50.094484249797	0.012214896652
0	4625	50.123592357864	0.013540004103
0	4636	50.336729427743	0.006325656474
0	4669	50.70615907977	0.005395240107
0	4680	50.7965164244	0.004940333675
0	4742	51.496888607507	0.007915240107
0	4753	51.580486777435	0.010006822823
0	4768	51.614639727973	0.015148004103
0	4779	51.644301132382	0.005462822823
0	4789	52.039253742119	0
0	4807	52.125743240943	0.016038896652
0	4832	52.193076683068	0.016876004103
0	4901	52.982220291009	0.007307240107
0	4934	53.28074476129	0
0	4956	53.371406521113	0.007217304704
0	4959	53.555827075049	0
0	5006	53.878328882717	0.011590896652
0	5032	54.036258281453	0.007193304704
0	5047	54.098247173014	0.012796004103
0	5069	54.388955023187	0.020116004103
0	5076	54.582201569051	0.005947240107
0	5102	54.778506965396	0.016492333675
0	5120	55.422275200148	0.008326896652
0	5189	56.342996113862	0
0	5214	56.5152945007	0.010693656474
0	5225	56.645564457725	0.004470896652
0	5232	56.8386538477	0.001615781145
0	5262	57.080078411604	0.021820004103
0	5281	57.12889627771	0.006301691534
0	5295	57.565589123598	0.017308333675
0	5316	58.206903124113	0.013685656474
0	5327	58.267095252208	0.011174896652
0	5334	58.325420031329	0.002449304704
0	5378	58.466969061011	0.005478896652
0	5385	58.726964504295	0.002715240107
0	5410	59.394721564552	0.013846822823
0	5502	60.367590530768	0.006211240107
0	5520	60.877783699785	0.010021656474
0	5527	60.930487792672	0.006995240107
0	5542	61.001587038358	0.011557691534
0	5594	62.391339996408	0.002705304704
0	5653	62.629161944473	0.025693691534
0	5660	62.798307959402	0.008305304704
0	5671	62.825489414126	0.012693656474
0	5682	62.860990301447	0.004374822823
0	5718	63.127805569064	0.001775781145
0	5736	63.704244259687	0.007075240107
0	5801	64.346892025929	0.008581691534
0	5816	64.439529706	0.016117691534
0	5889	65.30589037764	0.001495781145
0	5904	65.405798317504	0.008316333675
0	5951	66.091870457379	0.006678822823
0	5962	66.164004800723	0.015750896652
0	5969	66.237605862639	0.007257304704
0	6075	67.181149737432	0.005271781145
0	6111	67.32560837035	0.021517691534
0	6158	67.831670884949	0.005329304704
0	6165	67.9389513622	0.004475240107
0	6172	67.98461298036	0.002577304704
0	6232	68.248137920036	0.006805691534
0	6239	68.277875127413	0.001743781145
0	6290	68.416592810179	0.008236004103
0	6305	68.482290270054	0.019213691534
0	6342	69.039756414403	0.006326822823
0	6364	69.253614935245	0.004067240107
0	6482	71.387310807776	0.016165691534
0	6497	71.542892895355	0.020413691534
0	6508	71.697656123917	0.003382822823
0	6555	72.04669642994	0.007974822823
0	6591	73.122238468499	0.006101656474
0	6617	73.312951732864	0.015709691534
0	6646	73.572419136908	0.005921304704
0	6690	73.886896189096	0.007772333675
0	6738	75.01579894097	0.010566822823
0	6788	75.577125182146	0.012614822823
0	6820	76.384177288743	0.014726822823
0	6874	77.10870367552	0.003125656474
0	6881	77.179347128488	0.005105304704
0	6903	77.470487114192	0.019300004103
0	6936	77.759112874876	0.003804333675
0	6981	77.941358414568	0.005725691534
0	7022	78.058750636254	0.005276333675
0	7025	78.140072182558	0
0	7040	78.22370475516	0.014821691534
0	7047	78.235168916178	0.007951781145
0	7135	79.105916099518	0.008086822823
0	7176	79.239237655145	0.011461656474
0	7183	79.326741584628	0.003321304704
0	7227	79.511703698271	0.004996004103
0	7318	80.640884442266	0.013685656474
0	7346	80.807068830799	0
0	7391	81.614834647453	0.006988004103
0	7402	81.655335402171	0.014758822823
0	7439	81.983127571949	0.011494896652
0	7446	82.050927294825	0.002057304704
0	7453	82.212647940669	0.007571240107
0	7530	82.724413894857	0.006375781145
0	7555	83.128538487306	0.013590822823
0	7581	83.378750781	0.010438896652
0	7618	83.680128775886	0.009020333675
0	7705	84.693844240806	0.008949656474
0	7734	84.78470344752	0.007499240107
0	7781	84.874561978522	0.004387240107
0	7792	85.017625111381	0.007622822823
0	7832	85.425590857376	0.015270822823
0	7843	85.603400061408	0.012102822823
0	7854	85.668280009574	0.017180333675
0	7969	86.588773875972	0
0	8002	86.666431639454	0.014614822823
0	8017	86.710077084963	0.015085691534
0	8043	86.860590181315	0.003404333675
0	8050	87.020679124543	0.003529304704
0	8061	87.278839310098	0.009606896652
0	8093	87.680640483763	0.016917656474
0	8100	87.697794570871	0.003071781145
0	8129	88.361633139049	0.026260004103
0	8132	88.630886442215	0
0	8139	88.759762258761	0.007251240107
0	8150	88.772207331407	0.006710822823
0	8187	89.154897428928	0.007382896652
0	8205	89.690523914808	0.011158822823
0	8219	89.835513529009	0
0	8251	90.118001248355	0.003155240107
0	8266	90.209061449861	0.007501691534
0	8324	90.835472532494	0.005558822823
0	8346	91.143477136581	0.016742896652
0	8363	91.417455281798	0.004665304704
0	8406	91.587037846957	0.004325656474
0	8432	91.713449721036	0.003451240107
0	8483	91.932799582802	0.014716333675
0	8620	93.616561857852	0.012822896652
0	8638	93.674222695729	0.002743781145
0	8649	93.725386748147	0.011942896652
0	8656	94.047524711192	0.002735781145
0	8697	94.335209050414	0.004709656474
0	8734	94.465400081426	0.010108333675
0	8741	94.529279319839	0.002651240107
0	8781	94.867401720841	0.011644004103
0	8795	95.357544412473	0.005548333675
0	8806	95.379244324124	0.007205656474
0	8817	95.485301700467	0.003638822823
0	8874	96.671949732608	0.018796004103
0	8896	96.886195036323	0.008821691534
0	8922	97.044124758648	0.008998896652
0	8992	98.216295594421	0.006565656474
0	8999	98.226277222671	0.003625304704
0	9021	98.283846919043	0.003579240107
0	9028	98.370656436829	0.006905304704
0	9064	98.681305288243	0.007605656474
0	9144	99.059952050961	0.008934896652
0	9173	99.436627417878	0
0	9183	99.523454924416	0
0	9223	99.993834376887	0.005463781145
0	9238	100.181999472516	0.023068004103
0	9278	100.357346406495	0.002881304704
0	9304	100.5707079558	0.006665304704
0	9333	101.078323183534	0.014662896652
0	9340	101.09851364402	0.007591781145
0	9355	101.213742397164	0.013597691534
0	9366	101.259107671399	0.007990896652
0	9380	101.527048171139	0.011189656474
0	9395	101.759910167247	0.015277691534
0	9406	101.820446660634	0.006133656474
0	9428	101.979846768164	0.008375781145
0	9492	102.992056613448	0.004443240107
0	9499	103.022068499553	0.004747240107
0	9550	103.50224967221	0.016917656474
0	9587	103.66973763019	0.016844091512
0	9644	104.20460562336	0.008017304704
0	9671	104.220078406555	0.006726896652
0	9751	105.288057524585	0.007356333675
0	9766	105.328079190156	0.023581691534
0	9802	105.837750255387	0.021964004103
0	9809	105.879766431392	0.007705304704
0	9820	105.907064821947	0.008325656474
0	9831	106.059426875185	0.004022896652
0	9844	106.264355283148	0.002433304704
0	9903	107.322401889431	0.008459240107
0	9925	107.494203761761	0.008598822823
0	9987	107.788589968127	0.005958822823
0	9991	107.789391015636	0.016838896652
0	9999	107.801541282223	0.024229691534
0	10035	108.025999093462	0.008118896652
0	10042	108.071119767076	0.006227240107
0	10072	108.303744513763	0.006758822823
0	10126	109.486348250864	0.012534822823
0	10155	109.925204102895	0.003830896652
0	10205	111.042920263406	0.009237656474
0	10267	111.411345663164	0.005437691534
0	10349	111.879793320813	0.005639781145
0	10382	112.037352084626	0.006447781145
0	10413	112.450131173068	0
0	10428	112.6561725409	0.014908004103
0	10439	112.757950262408	0.005381656474
0	10472	113.158328405225	0.001623781145
0	10490	113.237715553932	0.017061656474
0	10516	113.403208550902	0.021148004103
0	10523	113.432855702623	0.007207781145
0	10538	113.73289407213	0.012028004103
0	10548	113.830886548662	0.004699240107
0	10552	113.833710548662	0.006619547723
0	10567	113.887774002772	0.018052004103
0	10640	114.89885082118	0.009589656474
0	10666	115.136203430318	0.007894822823
0	10698	115.509187480605	0.006572333675
0	10745	115.889354702828	0.005249304704
0	10797	116.110083443542	0.006921304704
0	10838	116.393605970251	0.008005691534
0	10845	116.426310378337	0.001739240107
0	10895	117.294480003248	0.007799781145
0	10996	118.956559562589	0.006151781145
0	11003	119.158161314895	0.005889304704
0	11048	119.430944845438	0.010564004103
0	11059	119.521590763598	0.010006896652
0	11077	119.682618054002	0.014822896652
0	11113	119.774769860927	0.004759781145
0	11124	119.797832084202	0.009820333675
0	11138	119.974462976804	0.001913304704
0	11166	120.438553921927	0
0	11169	120.55259513444	0
0	11184	120.61990191873	0.017893691534
0	11213	120.738855981485	0.006435240107
0	11228	120.841141621617	0.006737304704
0	11294	121.537122092635	0.006639781145
0	11309	121.732386225764	0.007861691534
0	11395	122.79024480114	0.005795240107
0	11417	122.857856873967	0.026461691534
0	11435	123.201996081473	0.010652333675
0	11496	124.018538453102	0
0	11570	124.606650859958	0.007733656474
0	11591	124.824380305162	0.002771240107
0	11602	124.867773096082	0.008533656474
0	11613	124.902323444814	0.013222822823
0	11649	125.449137016389	0.007510822823
0	11660	125.545060974989	0.006742896652
0	11667	125.825997838819	0.002393304704
0	11699	126.12841577307	0.011893656474
0	11734	127.191368399501	0.004559781145
0	11738	127.193798163796	0.007206896652
0	11756	127.35154649164	0.003334896652
0	11782	127.52332533385	0.004870822823
0	11825	128.033496723932	0.004777304704
0	11868	128.34978456659	0.011206896652
0	11871	128.398300131264	0
0	11893	128.577701396383	0.007727781145
0	11919	128.726034020095	0.003945304704
0	11985	129.284181298446	0.005275240107
0	11999	129.34572998803	0.007385304704
0	12014	129.542986228934	0.025597691534
0	12025	129.827865622594	0.011141656474
0	12028	129.936389040718	0
0	12045	130.244738054348	0.002847781145
0	12076	130.841813665876	0.025285691534
0	12105	131.016478503511	0.016917656474
0	12158	131.665147477305	0.005209304704
0	12233	132.320366925668	0.002529304704
0	12284	132.994373812989	0.005622896652
0	12295	133.118212514482	0.004695781145
0	12338	133.277191699712	0.003961304704
0	12375	133.641625570885	0.015253656474
0	12415	134.084307400112	0.004309656474
0	12441	134.452496334927	0.017013656474
0	12467	135.000452098025	0.009541656474
0	12502	135.238417354152	0.006885656474
0	12569	136.229987553626	0.006374822823
0	12572	136.382723500873	0
0	12594	136.426698309708	0.024364004103
0	12614	136.657873861158	0.003315240107
0	12628	137.331882683666	0.004769304704
0	12659	138.240919355642	0
0	12681	138.280658410893	0.006415781145
0	12706	139.549991841306	0.009094822823
0	12736	140.000043999084	0.007405691534
0	12754	140.155400351888	0.008199781145
0	12765	140.253379698626	0.012566822823
0	12772	140.27465132476	0.005227240107
0	12779	140.42586217918	0.005955240107
0	12793	140.509188212488	0.006076333675
0	12870	140.918811851616	0.008147240107
0	12942	141.999041548142	0.016636333675
0	12949	142.313857905565	0.001687781145
0	12996	142.830004768302	0.005607781145
0	13010	142.881648588894	0.015916333675
0	13046	143.227959937158	0.006726896652
0	13053	143.540357664205	0.003907240107
0	13089	143.754903981201	0.008299240107
0	13118	144.2294777111	0.015740333675
0	13158	144.399667553417	0.012214822823
0	13186	144.740583739189	0.008587240107
0	13211	145.195414410573	0
0	13214	145.234335928828	0
0	13272	145.761417057274	0.002539240107
0	13357	146.537426236866	0.002801304704
0	13408	147.365390310115	0.015100333675
0	13419	147.399194744003	0.005926896652
0	13492	147.898470357503	0.015397691534
0	13507	147.983381200382	0.005212004103
0	13518	148.008292466689	0.005110822823
0	13525	148.160026968018	0.006615781145
0	13569	148.363790581143	0.010037656474
0	13580	148.380366481347	0.011782896652
0	13594	148.557434491242	0.009670896652
0	13627	148.621693542945	0.007308333675
0	13657	149.134894850693	0.024220004103
0	13668	149.509395101857	0.013772333675
0	13693	149.878564929029	0.003969304704
0	13725	150.435007875799	0.010725656474
0	13780	151.030662104513	0.014918822823
0	13813	151.411381546796	0.006585304704
0	13843	151.480214068231	0.007285691534
0	13846	151.494870474151	0
0	13860	151.691589285728	0.006195240107
0	13874	151.913206333959	0.007231781145
0	13905	152.39128047733	0.005263781145
0	13943	152.632200364549	0.011094822823
0	13975	152.864174901555	0.007621656474
0	14034	153.421159256027	0.012828333675
0	14037	153.446148812627	0
0	14131	154.870132681567	0.004582822823
0	14138	154.872824896832	0.004390896652
0	14174	155.088404072978	0.007798896652
0	14178	155.096564072978	0.018917418861
0	14199	155.56102815545	0.008774822823
0	14225	155.62852684408	0.006652333675
0	14255	155.74571481928	0.024013691534
0	14305	156.355681750393	0.007683240107
0	14309	156.358823218874	0.005703781145
0	14326	156.591134111955	0
0	14333	156.606966630949	0.006651240107
0	14367	156.80078674284	0.019204004103
0	14370	156.826755172469	0
0	14399	156.922545150081	0.005044004103
0	14435	157.334002484164	0.004585304704
0	14457	157.475874113082	0.008795240107
0	14468	157.597653517202	0.004085656474
0	14486	158.019502827398	0.015574896652
0	14500	158.235320599076	0.012646896652
0	14511	158.311005845682	0.012965656474
0	14522	158.322132765053	0.010966822823
0	14537	158.34631444135	0.005116004103
0	14551	158.364310423505	0.002727781145
0	14646	159.500513256393	0.013670822823
0	14689	160.327033407915	0.003897304704
0	14711	160.439913764511	0.013573691534
0	14740	161.034903020467	0.002934822823
0	14777	161.351403680784	0
0	14799	161.633286633106	0.015125656474
0	14813	161.903893750444	0.008139240107
0	14824	162.086235152316	0.012853656474
0	14846	162.146308530379	0.011484333675
0	14901	162.517967045748	0.022564004103
0	14979	163.016886250035	0.023428004103
0	14993	163.206372560064	0.001391781145
0	15137	164.122093412573	0.015222822823
0	15188	165.265922389912	0.020437691534
0	15199	165.311168917117	0.012214822823
0	15224	165.573874500805	0
0	15250	165.711331796687	0.016564004103
0	15279	166.052308502138	0.026077691534
0	15337	166.655712211422	0
0	15345	166.658943318727	0.005446822823
0	15360	166.732021167341	0.017365691534
0	15378	166.811808089581	0.005445656474
0	15411	166.943237685634	0.016246822823
0	15432	167.321972719465	0.004859240107
0	15476	167.607776205004	0.009158822823
0	15494	167.673468505203	0.007445656474
0	15508	167.879119147553	0.008499240107
0	15557	168.481247040897	0.015388004103
0	15586	169.197663118301	0.021493691534
0	15661	169.645364723406	0.004163240107
0	15686	170.231179822136	0.002443240107
0	15696	170.632283768035	0
0	15714	170.823999919039	0.005222822823
0	15761	171.537346931609	0.011990822823
0	15772	171.549440490383	0.006604333675
0	15793	171.785413856677	0.026308004103
0	15811	171.796410427936	0.005045656474
0	15863	172.051225809334	0.005974896652
0	15885	172.290269645171	0.008485691534
0	15892	172.302655749284	0.003011240107
0	15913	172.44690122763	0.006761304704
0	15928	172.659228744314	0.010660004103
0	15931	172.738811352317	0
0	15969	173.028628117065	0
0	15984	173.170510706065	0.018277691534
0	15999	173.280038371357	0.016741691534
0	16017	173.480603012254	0.014262896652
0	16049	174.081102920216	0.003857304704
0	16097	174.227549147863	0.013285656474
0	16133	174.343525957368	0.003302896652
0	16162	175.044324276806	0.007825304704
0	16211	175.472207505364	0
0	16236	175.848169185587	0
0	16257	176.05727929728	0.006659240107
0	16271	176.1624756412	0.001775781145
0	16278	176.20242034881	0.001535781145
0	16296	176.384489133608	0.003155240107
0	16340	176.72373174943	0.022381691534
0	16362	176.829387926027	0.021676004103
0	16380	176.9861828959	0.008403240107
0	16402	177.110232693769	0.011526822823
0	16413	177.483629178848	0.006486896652
0	16428	177.559916437756	0.024277691534
0	16475	178.43484907508	0.009094822823
0	16520	178.831532848915	0.022156004103
0	16561	179.136149567723	0.005513304704
0	16618	179.418073375726	0.013909691534
0	16625	179.532307503737	0.007185304704
0	16636	179.772653611322	0.005141656474
0	16643	179.926427579596	0.004831781145
0	16646	179.978504789372	0
0	16660	180.070144556996	0.004511781145
0	16686	180.465862426571	0.014140004103
0	16708	180.860125768029	0.009868004103
0	16719	180.978483581583	0.004630822823
0	16726	181.013549295882	0.004091240107
0	16763	181.401886922126	0.012773656474
0	16799	181.533129924285	0.008385304704
0	16813	181.64279169712	0.006223781145
0	16872	182.305601004713	0.016838822823
0	16894	182.431812020452	0.016869656474
0	16905	182.737936188705	0.016188333675
0	16912	183.483039726889	0.003739240107
0	16956	183.904839903847	0.016093691534
0	16963	183.945019443914	0.007827240107
0	17021	184.416105125609	0.014582896652
0	17038	184.652382514778	0.007099240107
0	17130	185.633197984293	0.018484004103
0	17155	186.102418452892	0
0	17162	186.146758986338	0.004617304704
0	17177	186.262199971972	0.014125691534
0	17184	186.362596693978	0.006457304704
0	17209	186.711050220133	0.010902822823
0	17257	186.851898272965	0.021652004103
0	17271	186.989752882863	0.002247781145
0	17274	186.995969309474	0
0	17296	187.087358835309	0.007900333675
0	17359	187.417300237185	0.021388004103
0	17410	188.01771505846	0.007318822823
0	17425	188.135534943572	0.008924333675
0	17440	188.189889243947	0.015652004103
0	17447	188.294556215841	0.007691240107
0	17494	189.005394414407	0.003049304704
0	17567	189.704099013098	0.003719781145
0	17600	189.90476297596	0.022516004103
0	17611	189.943723883114	0.012636333675
0	17633	190.055941379243	0.023341691534
0	17651	190.270061117507	0.005989656474
0	17658	190.287154895083	0.006459240107
0	17672	190.390450263461	0.015141656474
0	17716	190.583125258228	0.007302896652
0	17733	190.808263566901	0.001663781145
0	17780	191.100945739856	0.015068333675
0	17812	191.298549254645	0
0	17822	191.600910724052	0
0	17859	191.857278752915	0.016132004103
0	17870	191.893040979489	0.005574896652
0	17892	191.998519975723	0.004316333675
0	17903	192.045926471886	0.010540333675
0	17946	192.505709419349	0
0	17978	192.752910410989	0.007995240107
0	18022	192.921937556982	0.025453691534
0	18069	193.126843956225	0.004663781145
0	18080	193.146150964578	0.015494822823
0	18101	193.449165678123	0.004083240107
0	18140	194.10360615089	0.003295781145
0	18147	194.120842866706	0.006319781145
0	18194	194.784566449378	0.015814896652
0	18220	194.92140112415	0.025093691534
0	18330	195.749152315201	0.005621656474
0	18363	196.062208205162	0.012149656474
0	18374	196.135996106439	0.007782822823
0	18464	196.986029565713	0.007893656474
0	18558	198.355756181252	0.007903781145
0	18605	198.779595681604	0.005487781145
0	18619	199.076275937946	0.010550896652
0	18627	199.083102328262	0.009190822823
0	18634	199.31168942617	0.003119781145
0	18670	199.570192208585	0.010422822823
0	18684	199.9560318276	0.004983781145
0	18764	200.610143302333	0.008657304704
0	18829	201.234847659776	0
0	18840	201.545079171903	0.011564333675
0	18867	201.802065498018	0
0	18878	201.933724638286	0.007356333675
0	18892	202.148809267707	0
0	18903	202.662597519268	0.003820333675
0	18939	202.988866911786	0.014245691534
0	18977	203.088269862422	0.004860333675
0	18999	203.171848208006	0.008319781145
0	19039	203.467055276212	0.013909656474
0	19053	203.756898635997	0
0	19162	205.363830329271	0.008761304704
0	19173	205.372297304563	0.006428333675
0	19247	205.756314009204	0.006805691534
0	19265	205.942901611396	0.012277656474
0	19289	206.045836581274	0.007217304704
0	19307	206.17910989263	0.019324004103
0	19355	206.404253603774	0.006155240107
0	19384	206.527459956169	0.010374822823
0	19424	206.74689984411	0.024364004103
0	19483	207.095877971907	0.013222822823
0	19527	207.49099476173	0.017812004103
0	19564	207.53763398871	0.009157691534
0	19616	208.242302791028	0.005395240107
0	19623	208.46504420118	0.008201304704
0	19648	208.503464698429	0.003589656474
0	19660	208.51750750684	0.018964004103
0	19694	208.896444242537	0.010669691534
0	19709	209.064035173606	0.016060004103
0	19778	209.738547236462	0.006633304704
0	19796	210.085504830539	0.009718822823
0	19855	210.621756964081	0.002151781145
0	19877	210.895393121566	0.004613656474
0	19898	211.159031829132	0.007431781145
0	19902	211.160790509392	0.006117656474
0	19913	211.283393708917	0.011030822823
0	19938	211.615918091068	0
0	19945	211.911079555508	0.007967781145
0	19980	212.471000834613	0
0	19991	212.475663128542	0.009580004103
0	19998	212.534957944402	0
0	20016	212.682122810612	0.016742822823
0	20051	213.471505644875	0.003391781145
0	20058	213.515836319105	0.006239781145
0	20091	213.668221055824	0.004783781145
0	20097	213.909379994646	0
0	20111	214.065177679738	0.012540333675
0	20118	214.256783850672	0.008491240107
0	20151	214.415545951575	0.006059240107
0	20198	214.958098887249	0.007708004103
0	20275	215.438557608184	0.015308333675
0	20293	215.557264499503	0.006780333675
0	20319	215.677858487075	0.010276004103
0	20326	215.751716334144	0.008771240107
0	20356	215.991701400505	0.011629691534
0	20380	216.721431906671	0.003127781145
0	20387	216.76069825924	0.004489304704
0	20506	217.879218273868	0.005383781145
0	20543	218.059192833373	0.016357656474
0	20576	218.300871951415	0.014278822823
0	20602	218.54507959715	0.018340004103
0	20642	218.731845139606	0.005145304704
0	20749	219.583469783688	0.012102896652
0	20790	219.659348169065	0.023989691534
0	20826	219.972557455516	0.002491240107
0	20870	220.305244397769	0.015686896652
0	20896	220.4042211586	0.025732004103
0	20907	220.426044239526	0.004854822823
0	20936	220.846817760455	0.011670822823
0	20985	221.146678003937	0.010758822823
0	21022	221.592047615236	0.002447781145
0	21071	221.940678351389	0.016381691534
0	21101	222.026604071249	0.003957656474
0	21123	222.200177986102	0.006469656474
0	21162	222.672076555772	0.001847781145
0	21195	222.846962096662	0
0	21210	223.223471421027	0.011510896652
0	21253	223.374622993866	0.010998896652
0	21287	223.702875269611	0.013717691534
0	21294	223.732484740273	0.001969304704
0	21301	223.785938273281	0.006447781145
0	21312	223.845739400736	0.005158822823
0	21327	223.882628133339	0.011356004103
0	21337	224.174864000339	0.007447781145
0	21369	224.299222045146	0.023125691534
0	21420	224.72026933196	0.006789656474
0	21438	224.919821726683	0.008748333675
0	21449	225.210918585367	0.011318822823
0	21460	225.269988660592	0.007990822823
0	21539	226.154342803539	0.022156004103
0	21565	226.21630942711	0.026164004103
0	21579	226.273627335614	0.004817304704
0	21601	226.700496770098	0.010045691534
0	21627	226.933767764878	0.011206896652
0	21645	227.159259070693	0
0	21689	227.354603545792	0.010726822823
0	21722	227.544655282785	0.002758822823
0	21752	227.687650342818	0.019252004103
0	21774	227.948332548191	0.015757691534
0	21785	228.129885007723	0.003478896652
0	21792	228.181435207342	0.006847781145
0	21809	228.59330299559	0.004271781145
0	21846	228.961044239283	0.006057304704
0	21929	229.742356828117	0.016614822823
0	21947	229.839410917314	0.005081304704
0	21954	229.890661914383	0.005475240107
0	21982	230.322267951105	0.012437656474
0	22134	232.275015244836	0.007876004103
0	22148	232.523963534863	0.003158822823
0	22195	233.560732575955	0.016460333675
0	22235	234.340932604301	0.005254896652
0	22268	234.550677425637	0.003078896652
0	22289	235.408843537231	0.004193304704
0	22307	235.458298331783	0.006118822823
0	22369	235.880550535657	0
0	22376	235.966815004398	0.004873304704
0	22398	236.043498164542	0.009708333675
0	22424	236.385222925567	0.019573691534
0	22465	236.679427399123	0.013196333675
0	22487	236.71538517207	0.006380333675
0	22498	236.749675570466	0.015206822823
0	22505	236.894063408909	0.004491240107
0	22531	236.922631834567	0.003813656474
0	22553	237.204636604833	0.007501691534
0	22564	237.268508857313	0.007046896652
0	22585	237.357422846061	0.003925656474
0	22596	237.558727131066	0.010972333675
0	22639	238.196859738311	0.008161304704
0	22665	238.505915722289	0.013926822823
0	22672	238.882193521095	0.008375781145
0	22693	239.045949658943	0.007241304704
0	22719	239.32450113182	0.002199781145
0	22778	239.655842070942	0.013492004103
0	22789	239.692756276247	0.009222822823
0	22824	240.849504117746	0.015317656474
0	22842	240.90226854724	0.016316333675
0	22884	241.747024502061	0.005319781145
0	22957	242.734077455021	0.002819240107
0	22971	242.881395313853	0.008035240107
0	22986	243.00481576605	0.005164004103
0	23011	243.290161573555	0
0	23029	243.330352499784	0.003375781145
0	23047	243.436017054447	0.004471781145
0	23054	243.584497505898	0.003833304704
0	23065	243.607164852552	0.016278822823
0	23098	243.92386242693	0.026092004103
0	23134	244.114305609419	0.013381656474
0	23141	244.471768097268	0.002425304704
0	23152	244.61236515135	0.016005656474
0	23163	244.802852399136	0.005749656474
0	23173	245.02526926926	0
0	23180	245.063403278746	0.007239781145
0	23194	245.431001173278	0.008219240107
0	23277	246.527776753119	0.006710896652
0	23284	246.74992671609	0.002875240107
0	23316	247.109204545382	0.013012004103
0	23324	247.120237875668	0.011148333675
0	23346	247.311367608297	0.006815781145
0	23443	248.036777882537	0.009820004103
0	23446	248.253350205897	0
0	23464	248.360130222897	0.007621656474
0	23468	248.365701750442	0.014038822823
0	23479	248.497810258332	0.014294822823
0	23500	248.945205674195	0.004591781145
0	23533	249.117824991253	0.005284004103
0	23559	249.370376636315	0.015318896652
0	23604	249.669798347574	0.012949656474
0	23615	249.85938654161	0.003206822823
0	23630	249.888388298385	0.015076004103
0	23672	250.539533166645	0.014885656474
0	23720	250.856448079456	0.009429656474
0	23754	251.135378211775	0.009910896652
0	23761	251.343707281255	0.006163240107
0	23776	251.572872052705	0.018829691534
0	23787	251.667030801466	0.010764333675
0	23812	251.932394502188	0.016924333675
0	23841	252.203197788852	0.015045656474
0	23863	252.291618546714	0.006815781145
0	23878	252.301895184566	0.007300004103
0	23934	252.824305144311	0.019708004103
0	24034	253.598021046441	0.014726822823
0	24071	253.999272872664	0.008406822823
0	24097	254.237983957223	0.015052004103
0	24115	254.383546691165	0.003205656474
0	24126	254.638353914428	0.009580333675
0	24154	254.885470910502	0.014485656474
0	24176	255.127110420826	0.014517656474
0	24183	255.198659739348	0
0	24211	255.503692015311	0.007991781145
0	24222	255.668325021531	0.008620333675
0	24258	256.008912063099	0.022876004103
0	24280	256.186737993266	0
0	24356	257.116788258951	0.004965656474
0	24366	257.335328462862	0
0	24387	257.413072828511	0.008022896652
0	24391	257.414096027836	0.009014822823
0	24414	257.510867823282	0.009382896652
0	24425	257.528247315074	0.011686896652
0	24447	257.734699597568	0.006156333675
0	24519	258.538575861305	0.001591781145
0	24565	259.390108573361	0
0	24599	259.558331331391	0.006839781145
0	24643	259.924003913298	0.007775781145
0	24674	260.451392981484	0.011622896652
0	24689	260.569190740638	0.025300004103
0	24751	261.059855992232	0.008657304704
0	24794	261.457255236836	0.007692333675
0	24819	261.652900446136	0.018100004103
0	24837	261.719281508843	0.002566822823
0	24844	261.745584611897	0.003593304704
0	24873	262.05073601529	0.005985304704
0	24876	262.180260255317	0
0	24887	262.276702801141	0.015350896652
0	24915	262.616369522843	0.005775781145
0	24963	263.068200802095	0.008099240107
0	24981	263.2580747292	0.004837656474
0	25036	263.705309859381	0
0	25039	263.723815682081	0
0	25091	264.166811618477	0.002319781145
0	25113	264.221924688383	0.008294822823
0	25124	264.336602884819	0.013116333675
0	25153	264.49270992019	0.006589691534
0	25207	265.488848472249	0
0	25248	265.752008943946	0.007366896652
0	25262	266.089420103192	0.008179240107
0	25294	266.349126623018	0.002097304704
0	25301	266.374476805821	0.002355240107
0	25322	266.677691583541	0
0	25344	266.801685031622	0.004209304704
0	25377	267.16862225048	0.009397691534
0	25402	267.586946405805	0.003179240107
0	25438	267.777550615674	0.025309691534
0	25453	268.003351414573	0.007141691534
0	25524	268.567953852377	0.015782896652
0	25535	268.647048453384	0.014950822823
0	25553	268.793895716803	0.008401304704
0	25571	268.880141466722	0
0	25633	269.711991401966	0.017941691534
0	25676	270.103493345738	0.011638822823
0	25702	270.146083271109	0.023980004103
0	25705	270.260915941622	0
0	25763	270.941588668882	0.009013656474
0	25789	270.974464242629	0.016741656474
0	25800	270.994703403429	0.015078896652
0	25811	271.044497627316	0.014918822823
0	25873	271.646241564275	0
0	25880	271.68682751151	0.008755240107
0	25883	271.768440910012	0
0	25893	271.995610274398	0
0	25917	272.260550248288	0.008151781145
0	25924	272.26661389946	0.005779240107
0	25943	272.365107268785	0.007141691534
0	26001	272.77227432857	0.009941656474
0	26023	272.96222283441	0.018085691534
0	26046	272.986585175058	0.018997691534
0	26071	273.241487200363	0.008716333675
0	26104	273.556502863902	0.008017304704
0	26167	273.893507638923	0.002377304704
0	26182	274.456749806236	0.018940004103
0	26197	274.523684204652	0.016765691534
0	26219	274.744122484127	0.014038822823
0	26226	274.928885274518	0.007919781145
0	26233	275.064788880348	0.005289304704
0	26279	275.815466203464	0.004537304704
0	26329	276.33129387595	0.003751781145
0	26354	276.67238255811	0
0	26379	276.827010087578	0.009980333675
0	26453	277.182526030732	0.020365691534
0	26460	277.221778306631	0.004297304704
0	26477	277.564450192049	0.004417304704
0	26499	277.65326948899	0.002649304704
0	26545	278.237396301553	0.008982822823
0	26563	278.432691562302	0.002659240107
0	26626	279.249023514038	0.015436004103
0	26695	279.933682131951	0.012118896652
0	26706	279.957806160761	0.007228333675
0	26713	279.967939504495	0.003515240107
0	26783	280.304501431418	0.006533656474
0	26823	280.903088834319	0
0	26851	281.303008909052	0.006471781145
0	26892	281.57940619225	0.012006896652
0	26932	281.73487372023	0.010646896652
0	26990	282.687684371798	0.013660333675
0	27023	282.913191114276	0.001935781145
0	27038	283.047746964533	0.015589691534
0	27063	283.131423759526	0.009653656474
0	27071	283.141374129151	0.018940004103
0	27085	283.341804302351	0.004236333675
0	27100	283.365943202682	0.006508004103
0	27146	284.105189391658	0.001415781145
0	27179	284.296656743201	0.013110822823
0	27182	284.606004225189	0
0	27207	285.144516637022	0.004857304704
0	27257	285.984183033734	0.003567781145
0	27271	286.335516310166	0.011206822823
0	27323	286.675714941563	0.004150896652
0	27344	287.051791960609	0.011798896652
0	27369	287.424969929535	0.014188004103
0	27387	287.537839058189	0
0	27401	287.813202159703	0.012188333675
0	27482	288.33963263332	0.011629691534
0	27517	288.48692822051	0.003713304704
0	27524	288.513917155843	0.008073304704
0	27531	288.655506997005	0.005771240107
0	27556	288.786406347654	0.008694896652
0	27567	288.871908365226	0.005205656474
0	27578	288.953126816025	0.015350896652
0	27593	289.110158548941	0.012325691534
0	27640	289.665123424128	0.007647781145
0	27701	290.462203181342	0.014982896652
0	27733	290.820182791654	0.010102896652
0	27770	291.200401292513	0.021397691534
0	27773	291.38878390393	0
0	27791	291.44647249816	0.008693656474
0	27809	291.519709330899	0.007462822823
0	27903	292.46171597423	0.001623781145
0	27932	293.057641182454	0.008998896652
0	27979	293.8175388282	0.002943781145
0	27997	294.050906529069	0.006929304704
0	28004	294.130302871067	0.006569304704
0	28014	294.407889154265	0
0	28053	295.024115986524	0.006985304704
0	28064	295.163335793862	0.004982822823
0	28079	295.359525926277	0.022525691534
0	28090	295.470620517304	0.008710896652
0	28230	296.757562657589	0.002065304704
0	28269	297.539942038555	0.006015781145
0	28276	297.801613813412	0.007347240107
0	28289	298.257744755058	0
0	28314	298.539207879584	0.004191781145
0	28369	298.77364219016	0.014796333675
0	28416	299.615496883819	0.013958896652
0	28441	300.163171343736	0.019045691534
0	28456	300.224045487844	0.015541691534
0	28463	300.27180651924	0.003295781145
0	28528	300.671345752259	0.015253656474
0	28619	301.261218189586	0.018892004103
0	28627	301.269370189586	0.024522755468
0	28652	301.417331665804	0
0	28674	301.552506845799	0.025021691534
0	28678	301.555922845799	0.011996937749
0	28776	302.099819744907	0.008774896652
0	28779	302.100165254544	0.006455781145
0	28823	302.510565175796	0.007051240107
0	28858	302.828403211672	0
0	28869	302.980775009361	0.004310896652
0	28884	303.09899151038	0.026533691534
0	28895	303.112982151838	0.006988333675
0	28920	303.716000596227	0.006801304704
0	28975	304.962646082266	0.004373656474
0	29035	305.327974765565	0.007964333675
0	29054	305.356063587307	0.012870896652
0	29095	305.432568717448	0.025564004103
0	29128	305.59877725634	0.012790896652
0	29183	306.419626059921	0.003559781145
0	29194	306.436400743559	0.004140333675
0	29243	306.799012747746	0.015621656474
0	29254	306.820782112396	0.015500333675
0	29317	307.213485472109	0.013020333675
0	29328	307.259854153038	0.009622896652
0	29343	307.267179132752	0.005222822823
0	29346	307.267212585857	0.003025304704
0	29363	307.444325175727	0.007269656474
0	29378	307.505429256331	0.021397691534
0	29381	307.517754799671	0
0	29392	307.941282325223	0.012284333675
0	29476	308.599253431528	0.013477656474
0	29490	308.729669260279	0.004774822823
0	29527	308.855233024435	0
0	29538	308.895367288432	0.007462822823
0	29545	308.94915549343	0.002855781145
0	29556	309.256474344361	0.011558822823
0	29571	309.320545747569	0.016852004103
0	29597	309.420044979091	0.009653656474
0	29608	309.650387257145	0.011653656474
0	29659	310.217232964827	0.002167781145
0	29689	310.750623429785	0.014605691534
0	29790	312.401249527914	0.002315240107
0	29811	312.475144323701	0.005190822823
0	29827	312.966932438717	0
0	29852	313.321078316329	0.016582822823
0	29856	313.325390316329	0.018582558927
0	29896	313.800774004849	0.008838896652
0	29925	313.84997611083	0.006703781145
0	29953	314.018032479497	0.005281304704
0	29971	314.221074140078	0.002287781145
0	29993	314.367421655479	0.005467240107
0	30081	315.050774969177	0.008326822823
0	30095	315.208061489684	0.013878822823
0	30099	315.21097481473	0.005529304704
0	30106	315.223874131976	0.007183781145
0	30128	315.312127521763	0.016422822823
0	30167	315.758771157401	0.004599781145
0	30212	315.839503900246	0.004517656474
0	30226	315.891393096731	0.007577304704
0	30255	316.465661749447	0.003414896652
0	30268	316.561995020637	0
0	30291	316.845019445079	0.010838822823
0	30328	317.330726652546	0.007588004103
0	30390	317.587329532678	0.008341656474
0	30430	317.800541106858	0.005507240107
0	30489	318.180410970673	0.005887781145
0	30500	318.186211231606	0.016228004103
0	30581	318.53210614313	0.011573656474
0	30637	318.96159009544	0.007553304704
0	30651	319.035755655912	0.008073304704
0	30697	319.652670715335	0
0	30704	319.735474156178	0.005775781145
0	30767	320.412805549004	0
0	30798	321.374861956649	0
0	30809	321.528606636745	0.014821656474
0	30820	321.750519649824	0.007366896652
0	30831	321.907671417848	0.004566896652
0	30842	322.063580899774	0.005573656474
0	30853	322.091216368492	0.011612333675
0	30856	322.335327221058	0
0	30874	322.488167024406	0.005724333675
0	30881	322.593898880943	0.005537304704
0	30888	322.682660757063	0.007483240107
0	30919	323.566741683014	0
0	30927	323.579754093067	0.016886896652
0	30993	324.573329600692	0.016508333675
0	31007	324.619180811104	0.015148333675
0	31039	324.795210778399	0.006473304704
0	31087	325.216949250217	0.012261656474
0	31138	325.932678456188	0.009462896652
0	31170	326.237924381709	0.010534896652
0	31184	326.33220061876	0.013621656474
0	31256	327.013643406423	0.001969304704
0	31282	327.304191340912	0.009526822823
0	31297	327.386949343231	0.012829691534
0	31308	327.603303443332	0.005782822823
0	31323	327.68667238808	0.005644004103
0	31333	327.892209053338	0.006575781145
0	31366	327.937843051408	0.004591781145
0	31377	328.115122358455	0.010396333675
0	31384	328.215029938652	0.004905304704
0	31394	328.23393776852	0
0	31418	328.591454448878	0.004583781145
0	31425	328.925684386466	0.003335781145
0	31496	329.811477822114	0.015172004103
0	31529	330.181028703164	0.002869656474
0	31554	330.586326014577	0.005633304704
0	31583	330.758554835546	0.002073304704
0	31609	331.395494780932	0.008092333675
0	31616	331.39816881248	0.007933691534
0	31630	331.696945015838	0.003457304704
0	31644	331.819643655168	0.016357656474
0	31659	331.888910446907	0.006829691534
0	31673	332.402823248112	0.007763240107
0	31698	332.810456034394	0.006332333675
0	31739	333.10289477977	0.008701691534
0	31757	333.28385842104	0.006284333675
0	31775	333.425285064047	0
0	31800	333.662571547954	0.010550896652
0	31815	333.68136531896	0.007285691534
0	31830	333.824934840241	0.015604004103
0	31837	334.027022179318	0.002991781145
0	31877	334.384847202707	0.004780333675
0	31942	334.979794080113	0.005846896652
0	31963	335.022219852347	0.001721304704
0	32012	335.45128887479	0.010405691534
0	32030	335.696785165916	0.004555240107
0	32069	335.998340411012	0.008419240107
0	32141	336.898598513843	0
0	32152	337.104523675347	0.007718822823
0	32159	337.195106688513	0.003327781145
0	32170	337.231749099346	0.005861656474
0	32177	337.407777856035	0.003231781145
0	32209	337.704172711307	0.003873304704
0	32245	338.415688259375	0.003031781145
0	32274	338.640577687426	0.011077691534
0	32339	338.939678689168	0.007071781145
0	32391	339.386089114013	0.015813656474
0	32402	339.466930271365	0.009766822823
0	32409	339.734389668927	0.005099240107
0	32431	340.068555020561	0.008886896652
0	32457	340.338407872262	0.015308333675
0	32598	341.844598681065	0.001927781145
0	32609	341.891773731721	0.016917656474
0	32616	342.177092614666	0.004643240107
0	32645	342.497020818931	0.005225304704
0	32656	342.674695857725	0.017372333675
0	32681	343.049377469877	0.004841304704
0	32692	343.192122351964	0.004182896652
0	32732	343.422920594284	0.007958822823
0	32758	343.516100405875	0.015892004103
0	32765	343.600206935565	0.006127781145
0	32779	343.729984378285	0.007385304704
0	32835	344.318728006418	0.016102896652
0	32874	344.73698379157	0.005569304704
0	32947	345.41095476874	0.012388004103
0	32988	346.131293790708	0.022861691534
0	33002	346.19981077934	0.004011240107
0	33031	346.6267547354	0.011365656474
0	33042	346.663403563098	0.005014822823
0	33131	347.549069389547	0.004523240107
0	33145	347.79957315856	0.002609304704
0	33152	348.188753739259	0.003145304704
0	33166	348.35331438056	0.006815781145
0	33239	349.350008456551	0.003222822823
0	33261	349.464295107662	0.003878896652
0	33297	350.074232061612	0.007324004103
0	33348	350.630502693624	0.004357656474
0	33354	350.754960979704	0
0	33365	351.030576982834	0.013638822823
0	33422	351.795482696771	0.008241304704
0	33429	351.892346861427	0.003911781145
0	33464	352.341074357789	0.007030896652
0	33489	352.487281256451	0.016806896652
0	33522	352.593340107201	0.015548333675
0	33529	352.842621548669	0.006575781145
0	33595	353.061762864313	0.026188004103
0	33616	353.274171972882	0.002599781145
0	33627	353.349589599396	0.001795240107
0	33663	353.676066277402	0.012310822823
0	33692	354.248929225085	0.008659240107
0	33714	354.499097262601	0.017382896652
0	33768	355.164956332825	0
0	33803	355.795102577098	0.008233304704
0	33825	355.896638979093	0.014764333675
0	33832	355.900441962152	0
0	33855	356.12932581595	0
0	33874	356.243048314924	0.010828333675
0	33922	356.69085317652	0.021412004103
0	33966	356.844265510851	0.019045691534
0	33977	356.875862963243	0.004326896652
0	33980	357.027933808411	0
0	33987	357.042908605174	0.001931240107
0	34001	357.680301497905	0.007193304704
0	34041	358.179643593472	0.012230896652
0	34048	358.218763611004	0.002287781145
0	34062	358.690409510148	0
0	34099	358.946384384286	0.013957656474
0	34124	359.234008204967	0.002715240107
0	34146	359.381624339756	0.008828333675
0	34201	359.918183206535	0.016917656474
0	34212	359.946748212292	0.016102822823
0	34289	361.597153899337	0.002185304704
0	34350	362.247426918949	0
0	34398	362.583503358197	0.017308004103
0	34423	362.773981245212	0.004838896652
0	34482	363.40158488321	0.005014822823
0	34496	363.452778243453	0.008243240107
0	34581	363.966859250454	0.017236004103
0	34632	364.667661250852	0.012294822823
0	34653	365.129423983922	0.008790896652
0	34675	365.925984261469	0.004105304704
0	34700	366.169466179135	0.003509656474
0	34728	366.283085735734	0
0	34759	366.437175888575	0.005143781145
0	34778	366.495080800744	0.012972333675
0	34833	367.199273306714	0.002161304704
0	34851	367.389740483692	0.016182896652
0	34905	367.990409506078	0
0	34929	368.572870740719	0.005943781145
0	34936	368.579667182229	0
0	35002	369.417374693824	0.008740004103
0	35013	369.457978388127	0.011804333675
0	35038	369.655675625971	0
0	35081	369.976918768106	0.007958896652
0	35111	370.131912875171	0.005141656474
0	35125	370.804032102032	0.004775781145
0	35128	370.854154744035	0
0	35150	371.707212006068	0.006053656474
0	35153	371.722014240413	0
0	35201	371.834358290188	0.011188004103
0	35230	372.265301020681	0.008844333675
0	35241	372.274334904099	0.009030896652
0	35255	372.337911493914	0.008347240107
0	35280	372.698028430695	0.003189656474
0	35291	372.723104677211	0.016229656474
0	35302	372.764417895943	0.016550896652
0	35380	373.736522618046	0.022948004103
0	35390	373.768649398058	0.002617304704
0	35401	373.980032954702	0.008694896652
0	35412	374.222637221991	0.013660333675
0	35438	374.578319518175	0.019981691534
0	35452	374.597354321805	0.016022896652
0	35493	374.676103228981	0.015126896652
0	35523	374.697632916268	0.001423781145
0	35531	374.710141249692	0.020812004103
0	35538	374.792619522366	0.002089304704
0	35548	375.098324646176	0.002785304704
0	35559	375.135476708136	0.003851240107
0	35581	375.376252982625	0.006694896652
0	35614	375.523456724589	0.010518896652
0	35625	375.825972122126	0.011686896652
0	35654	376.611744070461	0.013909656474
0	35675	376.872918876739	0.002067240107
0	35686	376.968933166284	0.014652333675
0	35727	377.162864856071	0.008982896652
0	35764	377.682579812001	0.006343781145
0	35789	377.902302543718	0.005367781145
0	35811	378.163919032939	0.006219240107
0	35829	378.374788274667	0.005541656474
0	35835	378.781888742335	0
0	35857	379.006234406589	0.022228004103
0	35864	379.068708591345	0.004087781145
0	35933	379.775409338617	0.016732004103
0	35983	380.626593754728	0.006100004103
0	36033	381.448632603467	0.015510822823
0	36043	381.617219443564	0
0	36064	382.179956682741	0.006503781145
0	36071	382.196397654154	0.005833304704
0	36074	382.319096709672	0
0	36107	382.399509210644	0.003925656474
0	36227	383.625439680969	0.010710896652
0	36260	384.11832840757	0.016444333675
0	36271	384.132812478662	0.021757691534
0	36282	384.217173906399	0.010956333675
0	36299	384.602363388449	0
0	36334	384.997641530585	0.013653656474
0	36352	385.429718056009	0.015510822823
0	36363	385.451161130574	0.010470896652
0	36374	385.598614081941	0.015846896652
0	36433	385.894025737657	0.006953304704
0	36458	386.217732506955	0.005319781145
0	36462	386.222700506955	0.019050641133
0	36503	386.458683290312	0.005493656474
0	36550	387.05016284793	0.006614822823
0	36557	387.170486686737	0.006351781145
0	36587	387.300469686176	0.010261691534
0	36596	387.480253261365	0
0	36603	387.49930928622	0.007809304704
0	36606	387.693263482784	0
0	36675	388.275257902081	0.004707240107
0	36722	389.092957236944	0.006748333675
0	36736	389.418646273219	0.002997656474
0	36761	389.626224381332	0.007350822823
0	36797	390.199095113015	0.002807781145
0	36819	390.471415201788	0.002225304704
0	36852	390.61452369807	0.010454896652
0	36930	391.027867533428	0.020941691534
0	36988	391.194990074169	0.009468333675
0	36995	391.556024149296	0.003463781145
0	37012	391.87954189739	0.008113304704
0	37023	392.015765797043	0.007606896652
0	37064	392.476573697499	0.017524004103
0	37103	392.888309748273	0.003516333675
0	37110	393.630590548262	0.006247781145
0	37154	394.040880783673	0.013589656474
0	37186	394.349698916996	0.010053656474
0	37201	394.829062975763	0.017845691534
0	37219	394.876482062769	0.011222822823
0	37236	395.085215783765	0.015030822823
0	37351	395.980537543015	0.024292004103
0	37365	396.053817055714	0.004305304704
0	37390	396.30305672259	0.006998822823
0	37470	396.693405369435	0
0	37521	396.854560642548	0.007001304704
0	37561	397.025791390183	0.013861656474
0	37569	397.033959390183	0.016954799853
0	37591	397.281402544502	0.001935781145
0	37630	397.814144041979	0.009974822823
0	37671	398.05852754979	0.003113304704
0	37747	398.881860179627	0.014741656474
0	37890	400.057702742104	0.010517656474
0	37922	400.89193394883	0.009316004103
0	38030	401.761109377042	0.018220004103
0	38037	401.891411346374	0.002639781145
0	38051	402.112245938555	0.006579240107
0	38087	402.796249228051	0
0	38102	402.999673909436	0.014197691534
0	38116	403.254937976572	0.003623781145
0	38141	403.352933427002	0.005047781145
0	38237	403.612497658326	0.021229691534
0	38244	403.686776027673	0.006239781145
0	38277	403.89225906256	0.012028333675
0	38284	403.911322277613	0.008611240107
0	38291	404.013814069602	0.004707240107
0	38336	404.419200840545	0.006550896652
0	38347	404.424715930664	0.004373656474
0	38404	405.00413670099	0.014836004103
0	38411	405.057108418877	0.006711781145
0	38429	405.487319937323	0.007221656474
0	38454	405.807912833666	0.017452333675
0	38469	405.875331504717	0.022396004103
0	38484	406.049839263485	0.019765691534
0	38516	406.326224664068	0.002423781145
0	38586	407.172704990086	0.001731240107
0	38608	407.335963273825	0.008773691534
0	38622	407.432849705421	0.004841304704
0	38651	407.677211300654	0.006502822823
0	38666	407.853704946887	0.018436004103
0	38696	407.996916560177	0.007542822823
0	38721	408.050859353385	0.010141691534
0	38750	408.509046901092	0.012773656474
0	38757	408.648228931851	0.007771240107
0	38803	409.492823725463	0
0	38821	409.748912177105	0.012982896652
0	38854	409.804870290435	0.005937304704
0	38865	409.920849671752	0.003436333675
0	38872	409.9466018557	0.008177304704
0	38923	411.167267603676	0.002065304704
0	39003	412.271273134955	0.015846822823
0	39007	412.276313134955	0.020756626754
0	39021	413.488027854415	0.006311781145
0	39090	414.038309889228	0.003849304704
0	39119	414.418949403877	0.019765691534
0	39126	414.496674390212	0.008159781145
0	39133	414.628981930399	0.002073304704
0	39181	415.05954608539	0.016742822823
0	39184	415.121230715671	0
0	39205	415.235573132437	0.002775781145
0	39216	415.331455750322	0.008886822823
0	39255	415.823344155499	0.007654822823
0	39262	415.859186637957	0.006471781145
0	39287	415.980471201499	0.004294822823
0	39305	416.39584589079	0.015590896652
0	39340	416.710369139682	0
0	39351	416.764642942187	0.013894822823
0	39373	416.797512530623	0
0	39481	417.852376847348	0.007222822823
0	39491	417.973484583406	0
0	39516	418.268113025314	0.007151781145
0	39556	418.481898522348	0.003427240107
0	39574	418.654106347258	0.002121304704
0	39589	418.807453586104	0.021652004103
0	39626	419.036091040544	0.012822896652
0	39673	419.373015678175	0.004220333675
0	39683	419.471564104926	0
0	39745	420.203641577523	0.021325691534
0	39774	420.30209268737	0.003494822823
0	39785	420.623094190604	0.007475240107
0	39796	420.846185320724	0.009942822823
0	39825	421.221726817313	0.024061691534
0	39840	421.41461138512	0.023533691534
0	39877	421.549124821993	0.008149691534
0	39887	421.649385915875	0
0	39897	421.724583861061	0
0	39922	422.15445662913	0.010070822823
0	39991	422.542372977021	0.003078822823
0	40006	422.590525015056	0.021205691534
0	40024	423.085381453666	0.008755240107
0	40093	423.594001128532	0.003529304704
0	40118	423.894360091994	0.022780004103
0	40136	424.070571566723	0.009606896652
0	40173	424.194534249377	0.015949691534
0	40214	424.402042811755	0.016621691534
0	40229	424.420521798578	0.011365691534
0	40244	424.480115728652	0.013204004103
0	40251	424.658131151476	0.004039781145
0	40276	425.026946213099	0.024445691534
0	40287	425.22814838999	0.005068333675
0	40298	425.308795302262	0.016732333675
0	40374	425.938556833132	0.007062822823
0	40488	426.94604334126	0.022636004103
0	40499	427.078893026131	0.005861656474
0	40521	427.144451535825	0.004230822823
0	40567	427.613241311888	0.006393304704
0	40633	427.982078401021	0.005286822823
0	40716	429.309830606579	0.002710822823
0	40789	429.525542043654	0.007309691534
0	40837	429.976991953917	0.023149691534
0	40844	429.990978722519	0.002675240107
0	40977	430.711008290121	0.025228004103
0	40980	430.905691619512	0
0	40995	431.03997345417	0.024220004103
0	41056	431.702692531969	0.016662822823
0	41107	432.043029324618	0.015652004103
0	41146	433.090782257912	0.003190822823
0	41161	433.251374936103	0.014068004103
0	41164	433.444469880387	0
0	41218	433.698889128761	0.017236004103
0	41275	434.216421715621	0.006147240107
0	41365	434.812493677888	0.003372333675
0	41376	435.139917479603	0.006070896652
0	41379	435.141938198	0
0	41390	435.163769242501	0.004134896652
0	41412	435.250834780944	0.004155240107
0	41459	435.592689550381	0.005590822823
0	41493	435.712116343538	0.012604004103
0	41540	436.38369400313	0
0	41589	437.066896507096	0.017773691534
0	41603	437.169630822836	0.014092333675
0	41622	437.245018988288	0.011574822823
0	41648	437.567353571618	0.004927781145
0	41667	437.619439694051	0.023620004103
0	41678	437.629155120053	0.013972004103
0	41751	438.092841481005	0.007035240107
0	41773	438.162594069403	0.013388333675
0	41814	438.507873324049	0.024349691534
0	41821	438.675606084149	0.003609304704
0	41847	438.954987431522	0.008965656474
0	41862	439.065777472565	0.020149691534
0	41907	439.181097509699	0.015685691534
0	41937	439.312802566248	0.020821691534
0	41948	439.356929674783	0.015782896652
0	41959	439.522122782623	0.008854822823
0	41976	439.969202748646	0
0	41979	440.029368955427	0
0	42029	440.461152521009	0.005587240107
0	42054	440.528843312517	0.012390896652
0	42061	440.568269857489	0.008611240107
0	42072	440.656346019229	0.008406822823
0	42108	440.907407475707	0.014949656474
0	42123	440.972715728888	0.009085691534
0	42130	441.253118116684	0.004195240107
0	42163	441.410208491831	0.016678822823
0	42247	442.033916302892	0.005571240107
0	42261	442.158677788873	0.008369304704
0	42309	442.331361550434	0.007989656474
0	42327	442.385167094398	0.003111781145
0	42381	442.844413827556	0.006447781145
0	42413	443.064950275611	0.005260333675
0	42431	443.300933659249	0.017190896652
0	42449	443.507267486032	0.008697304704
0	42485	443.812377255059	0.003483240107
0	42549	444.828198591645	0.023845691534
0	42598	445.151900927243	0.019108004103
0	42601	445.207213693261	0
0	42633	445.689526925797	0.014044004103
0	42654	445.7994341859	0.012220333675
0	42753	446.416727837907	0.004295781145
0	42833	447.467616754476	0
0	42844	447.714622578978	0.006780333675
0	42855	447.764616854262	0.007141656474
0	42916	448.604335932245	0.006903781145
0	42944	448.938029675752	0.005683240107
0	42963	449.006767322294	0.009334822823
0	43040	449.450210495262	0.018949691534
0	43054	449.513708964387	0.010406822823
0	43071	449.870771100628	0.004097304704
0	43082	449.901262570826	0.003045656474
0	43096	449.975312429688	0.005457304704
0	43136	450.376815546347	0.016908333675
0	43153	450.488575182904	0.008187240107
0	43233	450.79250268169	0.024517691534
0	43240	450.947077304243	0.004335781145
0	43247	450.99698773339	0.002449304704
0	43254	451.115950415021	0.003265304704
0	43298	451.613024207661	0.013141691534
0	43319	451.76806448657	0.005479781145
0	43344	451.874246041146	0.016774896652
0	43359	451.887748683101	0.005161304704
0	43363	451.889989308517	0.019573691534
0	43384	452.467979799982	0
0	43391	452.57342930247	0.005179240107
0	43430	452.71152771635	0.005893691534
0	43448	452.999309237547	0.005110896652
0	43488	453.436309599799	0.004662822823
0	43502	453.789111076543	0.004519781145
0	43509	453.872575507278	0.004343781145
0	43512	453.904200159433	0
0	43587	454.680569794907	0.003462822823
0	43595	454.691340029816	0.017388333675
0	43605	454.739761752502	0
0	43631	454.833025025036	0.020116004103
0	43679	455.002501789061	0.026581691534
0	43686	455.329889082323	0.007207781145
0	43708	455.583049905046	0.014517656474
0	43759	455.984416850329	0.004012333675
0	43770	456.038700032192	0.009125656474
0	43803	456.108688209567	0.008796333675
0	43821	456.222512944828	0
0	43828	456.284649742736	0.006609304704
0	43857	456.362821931892	0.009196333675
0	43879	456.592921069947	0.019237691534
0	43905	456.853825209065	0.005430822823
0	43942	456.929175585212	0.003861656474
0	43957	456.951368333753	0.016892333675
0	43968	457.194182636964	0.016678896652
0	43996	457.611853733607	0
0	44003	457.634262156751	0.004881304704
0	44021	457.717809957087	0.004374896652
0	44029	457.726309382615	0.016828004103
0	44036	458.148416607526	0.006003240107
0	44043	458.197513569266	0.003663781145
0	44050	458.211951846511	0.005207781145
0	44071	458.44579941874	0.002899240107
0	44082	458.45245790488	0.004009304704
0	44090	458.464235280212	0.022084004103
0	44108	458.57903806942	0.014821656474
0	44141	459.090462561964	0.014509691534
0	44156	459.33463070619	0.025540004103
0	44192	459.790802636414	0.003083240107
0	44236	460.165076945276	0.003381656474
0	44243	460.601052649264	0.005465304704
0	44275	460.862366709992	0.008557691534
0	44320	461.046224979099	0.011932004103
0	44342	461.234695722804	0.015949691534
0	44364	461.289574100601	0.022756004103
0	44382	461.427492217502	0.008892333675
0	44404	461.521367499392	0.021052004103
0	44418	461.622792924494	0.004886822823
0	44440	461.770311669437	0.011830822823
0	44458	461.808097812184	0.025837691534
0	44507	462.075447940986	0.012924333675
0	44521	462.383530419154	0.005324333675
0	44543	462.403592519608	0.007396004103
0	44606	463.113332389107	0.005967781145
0	44613	463.13908656805	0.006363240107
0	44685	463.546610667542	0.006715240107
0	44696	463.624285956626	0.008918896652
0	44707	463.80045515457	0.014853656474
0	44718	463.856772771571	0.014789656474
0	44736	463.98564734963	0.004343781145
0	44751	464.085593733256	0.015613691534
0	44762	464.108827894841	0.013189656474
0	44787	464.41394979656	0.010364333675
0	44805	464.666460056302	0.004209304704
0	44816	464.893298210711	0.010853656474
0	44860	465.268743748318	0.017260004103
0	44943	465.832114021967	0
0	44961	465.906795956418	0.006342822823
0	45001	465.962894872881	0.003881304704
0	45016	466.191697168343	0.014694896652
0	45030	466.290798438574	0.016102822823
0	45041	466.300445745041	0.011525656474
0	45063	466.4320298171	0.004159781145
0	45077	466.525739169035	0
0	45102	466.806247500083	0.008359781145
0	45105	466.865948041096	0
0	45108	466.913289968112	0
0	45122	467.040304890197	0.014165656474
0	45126	467.042104890197	0.002718301922
0	45132	467.43020111254	0
0	45183	467.987374979019	0.016053656474
0	45205	468.071471942571	0.018436004103
0	45245	468.224929947063	0.016646822823
0	45249	468.225711177967	0.005609304704
0	45252	468.239624595859	0
0	45273	468.551631455193	0.005707240107
0	45332	468.804142786709	0.007333691534
0	45343	468.848325623308	0.006981656474
0	45361	468.936691615624	0.011404004103
0	45391	468.981749270709	0.013013656474
0	45420	469.412759846517	0.004183781145
0	45460	469.80644245367	0.012854896652
0	45552	470.508354589361	0.006844333675
0	45581	471.049268958283	0.009596333675
0	45697	472.027106748383	0.004723240107
0	45708	472.070864027986	0.010133656474
0	45719	472.106588481355	0.015477656474
0	45745	472.711456042481	0.015558896652
0	45755	472.896314464105	0
0	45765	472.931576390049	0.008481304704
0	45769	472.938480390049	0.013068333731
0	45780	473.084635252677	0.010357656474
0	45795	473.174022835314	0.020980004103
0	45832	473.41976128864	0.020716004103
0	45864	473.700981508432	0.009621656474
0	45874	473.844779806696	0
0	45899	473.969024179819	0.008988333675
0	45921	474.091852423845	0.008825304704
0	45928	474.232262738588	0.006617304704
0	45938	474.395435956227	0.003377304704
0	45956	474.644456188123	0.001663781145
0	45967	474.784752436872	0.014268333675
0	46003	475.026403214337	0.008118822823
0	46033	475.17162787997	0.009292333675
0	46051	475.512151121675	0.007638822823
0	46073	475.63010765195	0.015365656474
0	46084	475.698770892182	0.011894896652
0	46095	475.732813638275	0.016933656474
0	46128	475.986524267225	0.010220333675
0	46154	476.232224915226	0.025684004103
0	46190	476.659782583041	0.006753304704
0	46255	477.546628448044	0.015148004103
0	46298	477.757545504487	0.005628333675
0	46320	477.942248401383	0.004511781145
0	46338	478.544782174117	0.013004333675
0	46355	478.640009926596	0.003593304704
0	46383	479.242820828025	0.005155240107
0	46456	479.879550119926	0.025708004103
0	46460	479.882398119926	0.017975415344
0	46541	480.41655556159	0.010806896652
0	46548	480.55890644497	0.002735781145
0	46579	480.874118711108	0.002031781145
0	46596	481.094747945163	0.006391781145
0	46604	481.105636876447	0.016661656474
0	46615	481.131053321329	0.008454896652
0	46646	481.405004600964	0.006891240107
0	46669	481.592573160861	0.007975781145
0	46687	481.890499865966	0.009574822823
0	46702	482.438621974641	0.014485691534
0	46720	482.53312867335	0.005083240107
0	46723	482.734498415646	0
0	46756	482.893176623448	0.002297304704
0	46800	483.030397384171	0.008721304704
0	46837	483.454490562469	0.011478822823
0	46901	484.034997518375	0.011286822823
0	46916	484.214426465803	0.008413691534
0	46919	484.278312295201	0
0	46944	484.604668244377	0.009061656474
0	46947	484.917576584528	0
0	46998	485.268908078807	0.001875240107
0	47028	485.895498756685	0.014172333675
0	47057	486.193205314773	0.012806896652
0	47064	486.36949818424	0.007451240107
0	47122	486.761097733484	0.008291240107
0	47169	487.315775594085	0.004535781145
0	47176	487.323540408886	0.023140004103
0	47187	487.404481261015	0.013526896652
0	47224	487.690989076327	0.003628333675
0	47238	487.979141384056	0.006785304704
0	47245	488.134718993535	0.005145304704
0	47256	488.191704718472	0.006780333675
0	47285	488.439241325319	0.016108004103
0	47296	488.51825149165	0.014325656474
0	47335	489.089074563152	0
0	47349	489.208262977501	0.007397656474
0	47356	489.352516304793	0.002231781145
0	47429	490.237841824656	0
0	47451	490.616644398606	0.007883240107
0	47484	490.796339242307	0.016918896652
0	47521	491.168505915207	0.014693656474
0	47539	491.268705687022	0.006581656474
0	47580	491.458031618745	0.012532004103
0	47611	491.686422903932	0
0	47629	492.168107743253	0.005035240107
0	47651	492.268432903553	0.006197656474
0	47670	492.295731832542	0.009548333675
0	47766	493.067793676802	0.003349656474
0	47774	493.07327920347	0.008086822823
0	47796	493.496060780333	0.010885691534
0	47855	494.158927014738	0.004927781145
0	47876	494.252957485355	0
0	47909	494.628463478262	0.006118822823
0	47931	494.831124121336	0.006565656474
0	47978	495.399956355907	0.006844004103
0	48010	496.08281609645	0.012998896652
0	48032	496.226189817778	0.015829656474
0	48083	496.849390638891	0.006822822823
0	48105	496.998221247124	0.007708333675
0	48174	497.597147956277	0.009526896652
0	48185	497.608682218838	0.008197656474
0	48200	497.77474105748	0.008020004103
0	48248	498.11872095016	0.020884004103
0	48259	498.226229724878	0.008021656474
0	48295	498.458288021929	0.002055781145
0	48362	498.726240961931	0.017044004103
0	48369	498.783863785814	0.003975781145
0	48376	498.988885058713	0.007743781145
0	48379	498.99676566942	0
0	48430	499.497966343886	0.001575781145
0	48441	499.553542167817	0.003638896652
0	48470	500.072264292052	0.006363240107
0	48485	500.11119853212	0.008557691534
0	48537	500.65900921421	0.005212004103
0	48585	501.03766346564	0.017581691534
0	48626	501.348820952045	0.007396004103
0	48648	501.389109065142	0.014068004103
0	48663	501.416736552766	0.014486896652
0	48717	502.04899831374	0.008487781145
0	48752	502.761310053325	0.005860004103
0	48782	502.89325179393	0.004230822823
0	48811	503.28330142868	0.008075240107
0	48825	503.338486717092	0.008342896652
0	48868	503.781418794326	0.005126822823
0	48889	503.864882461206	0.006959781145
0	48892	504.072750800682	0
0	48899	504.085443071957	0.002679781145
0	48963	504.72576614725	0
0	48973	504.784708372472	0
0	49013	505.808124183509	0
0	49075	506.759181643188	0.009196333675
0	49082	506.768895287757	0.006937304704
0	49137	507.074421116189	0.007318896652
0	49151	507.292840237567	0.004759781145
0	49190	507.671055160151	0.014390896652
0	49213	507.923666703011	0.007174896652
0	49235	508.047472127078	0.008550896652
0	49256	508.38730667487	0.002009304704
0	49264	508.394900420957	0.007644333675
0	49333	508.905972755433	0.014773691534
0	49369	509.692079523504	0.007305304704
0	49376	509.950377541935	0.004297304704
0	49440	510.877094187158	0.002095781145
0	49451	510.902773115311	0.015388333675
0	49488	511.060761674359	0.010276004103
0	49525	511.249250615189	0.003260333675
0	49536	511.30123228497	0.011878822823
0	49554	511.36176792558	0
0	49565	511.593548236241	0.012572333675
0	49572	511.781248511548	0.005321304704
0	49611	512.249639179751	0
0	49637	512.356449258061	0.002707240107
0	49658	512.868943759245	0.002131240107
0	49706	513.320863374854	0.014854896652
0	49717	513.479407075742	0.013388333675
0	49750	514.149158862932	0.008315240107
0	49776	514.462534534949	0.005476004103
0	49779	514.553639467629	0
0	49811	515.352266264206	0.002593304704
0	49889	516.060100564806	0.003155240107
0	49922	516.352900461069	0.004081304704
0	49940	516.381005386344	0.010268333675
0	49947	516.496618475003	0.002723240107
0	49964	517.102801275595	0
0	50009	517.323072473342	0.009676004103
0	50023	517.400328814984	0.005265304704
0	50073	518.215306889616	0
0	50109	518.679402363562	0.007647781145
0	50193	519.793518971161	0.015622822823
0	50240	520.025716723134	0.020520405146
0	50255	520.156842775531	0.017509691534
0	50339	520.964942137096	0.003683240107
0	50391	521.431001246046	0.010741656474
0	50478	522.674883023353	0.004316333675
0	50489	522.721838266168	0.009942822823
0	50547	523.310038021128	0.007043240107
0	50558	523.386726537976	0.013525656474
0	50572	523.62097855944	0.005351781145
0	50612	524.044086043368	0.010508333675
0	50619	524.268463619877	0.008659240107
0	50639	524.903539052729	0
0	50694	525.564818950896	0.005177304704
0	50697	525.580257573793	0
0	50738	526.030508572804	0.015709691534
0	50764	526.405495996147	0.006502896652
0	50778	526.544719701331	0.006503781145
0	50792	526.850981034944	0.005564333675
0	50799	527.036096703194	0.008497304704
0	50810	527.17446922418	0.009061656474
0	50839	527.342932688868	0.006300333675
0	50861	527.49597680968	0.002998822823
0	50875	527.578280044772	0.007659240107
0	50901	527.683162892096	0.019324004103
0	50940	528.385384148827	0.005350896652
0	50958	528.680877242599	0.007884333675
0	51023	529.188528679053	0
0	51027	529.192253423728	0.013765691534
0	51034	529.615468343701	0.004473304704
0	51048	529.950098350865	0.005227240107
0	51055	530.209739020853	0.006227240107
0	51077	530.331700552929	0.014413691534
0	51129	530.688365979566	0.015805691534
0	51151	531.008506976878	0.017164333675
0	51158	531.037505054553	0.008185304704
0	51171	531.073497390292	0.005457304704
0	51179	531.078801390292	0.007882653134
0	51219	531.544092148442	0
0	51237	531.656433102203	0.011612333675
0	51270	531.937152037434	0.003867240107
0	51295	532.267945814483	0.005097304704
0	51306	532.31448108134	0.009532333675
0	51332	532.377458091868	0.007254896652
0	51346	532.49925504193	0.013382822823
0	51357	532.54671696461	0.008757656474
0	51428	533.575258729179	0.007249304704
0	51450	533.609412108865	0.013260333675
0	51491	533.76368227129	0.014908004103
0	51553	534.407076674765	0
0	51568	534.480592015075	0.011644004103
0	51618	534.720893223173	0.006633304704
0	51733	536.105907165576	0.003532333675
0	51763	536.463816147121	0.011366822823
0	51777	536.533956408907	0.002279781145
0	51816	536.942374242521	0.005068004103
0	51882	537.150677195252	0.006437656474
0	51897	537.313875147444	0.007093691534
0	51904	537.320910407179	0.003057304704
0	51919	537.414407135249	0.008533691534
0	51926	537.547257277804	0.003299240107
0	51963	537.731743413405	0.006787240107
0	51984	537.965926412051	0
0	51991	537.970897027314	0.009574822823
0	52009	538.123722439566	0.010534822823
0	52079	538.704827456716	0.007382896652
0	52108	538.961256750474	0.008444333675
0	52122	539.23007804865	0.002079781145
0	52164	539.532172719426	0.017061656474
0	52174	539.689970934566	0
0	52185	539.728170186259	0.008412333675
0	52188	539.733718304154	0
0	52210	539.802493811363	0.004393304704
0	52259	539.981709319917	0.013732004103
0	52270	540.053681026448	0.009125656474
0	52307	540.26223142417	0.010950822823
0	52314	540.33458342036	0.003051240107
0	52339	540.670899711082	0.002511781145
0	52357	540.680885101497	0.014908004103
0	52361	540.686875137403	0.012118822823
0	52404	541.375334663924	0
0	52452	541.601172973999	0.006561304704
0	52463	541.812441779169	0.010716333675
0	52518	542.162771786035	0.005398822823
0	52540	542.741772413879	0.022660004103
0	52554	542.774958795866	0.016197656474
0	52558	542.778470795866	0.006018756967
0	52583	543.208125187534	0.009222822823
0	52597	543.260236128857	0.005027240107
0	52649	543.406326995229	0
0	52666	543.546019870788	0.001953304704
0	52673	543.778953663591	0.005659240107
0	52680	543.858505325107	0.008627240107
0	52691	544.638614634174	0.016885656474
0	52705	545.038919816049	0.003055781145
0	52762	546.013853243292	0
0	52791	546.288064250412	0.009932333675
0	52876	546.939496673112	0.003909656474
0	52930	547.375280953954	0.005855781145
0	52953	547.443805858377	0.007382822823
0	52960	547.477774964968	0.006667240107
0	52982	547.566422634239	0.008966896652
0	53008	547.761483187364	0.012870896652
0	53026	547.958813650768	0.007207781145
0	53052	548.161363851423	0.007419240107
0	53080	548.223922871515	0.016630822823
0	53091	548.238508125128	0.007302896652
0	53098	548.530566977317	0.008849304704
0	53137	549.538096716931	0
0	53167	549.686825075659	0.008989691534
0	53214	550.192958272122	0.001911781145
0	53266	550.580154130479	0.004085656474
0	53389	552.630335417893	0.007993304704
0	53430	552.890538122352	0.007655781145
0	53521	553.842011535846	0.005958822823
0	53532	553.88235310706	0.013286896652
0	53539	553.948021045835	0.003057304704
0	53598	554.463772456787	0.017773691534
0	53620	554.547098324397	0.008476004103
0	53634	554.883029960361	0.013590822823
0	53652	555.032842089652	0.012502822823
0	53707	555.635475277938	0.004268333675
0	53757	556.326343669361	0
0	53764	556.427943601453	0.006145304704
0	53775	556.469994441538	0.012710896652
0	53808	556.505569540585	0.003043240107
0	53842	556.632377199644	0.006565691534
0	53852	556.737118375387	0.008119781145
0	53863	556.744605825851	0.004310822823
0	53880	557.032397672044	0
0	53908	557.490874348938	0.016742896652
0	53942	557.642134661092	0.018028004103
0	53953	557.728007364248	0.016566896652
0	54008	558.254742364897	0.017340333675
0	54019	558.36004762339	0.009910896652
0	54026	558.575633468035	0.008043240107
0	54033	558.589936241613	0.002243240107
0	54113	559.652824213149	0.011766896652
0	54135	559.778454995311	0.011478896652
0	54146	559.81228654023	0.006150896652
0	54179	560.114446621542	0
0	54207	560.388344839416	0.026077691534
0	54215	560.403502616779	0.016710896652
0	54229	560.420365572426	0.003273304704
0	54258	560.469170197879	0.011413656474
0	54276	561.129214141137	0.007276004103
0	54287	561.222556734676	0.011484333675
0	54297	561.560954404234	0.007055781145
0	54359	561.978011248279	0.010069656474
0	54374	562.027618263102	0.023284004103
0	54381	562.145389435221	0.003833304704
0	54384	562.178943284923	0
0	54405	562.433765151187	0.002467240107
0	54419	562.528651419211	0.007655781145
0	54422	562.593435002622	0
0	54443	562.884277778249	0.005093656474
0	54451	562.893390402725	0.011606896652
0	54458	563.010886582254	0.003507240107
0	54478	563.193093210999	0
0	54482	563.198814622153	0.012646896652
0	54497	563.267739607007	0.010621691534
0	54507	563.575767254308	0.003487781145
0	54565	564.193470630515	0
0	54572	564.579511565239	0.002609304704
0	54579	564.761870888531	0.008361304704
0	54590	564.796552487257	0.009894822823
0	54620	565.034077386752	0.020884004103
0	54650	565.16934406777	0.009733691534
0	54682	566.142618877625	0.004854822823
0	54711	566.465356552475	0.005177304704
0	54740	567.038897787225	0.024421691534
0	54758	567.386220469653	0.007446896652
0	54846	568.587819642951	0.007675240107
0	54861	569.092095038589	0.013957691534
0	54898	569.359322333753	0.006877691534
0	54927	570.051226847533	0.007763240107
0	54934	570.06494468676	0.005207781145
0	54941	570.158762146065	0.006603240107
0	54948	570.295127658582	0.004167781145
0	54963	570.317344437717	0.014389691534
0	54974	570.454452979407	0.008646896652
0	54981	570.587953355446	0.005001304704
0	55057	571.556869512352	0.003463781145
0	55094	571.851629804147	0.004001304704
0	55112	572.165615534486	0.016454822823
0	55137	572.709007559426	0.012262822823
0	55140	572.825502305548	0
0	55154	573.138723272243	0.006854822823
0	55180	573.500011414651	0.010710822823
0	55195	573.526989713201	0.026101691534
0	55216	573.617251050606	0.007065304704
0	55220	573.617857312161	0.002934822823
0	55235	573.851460756146	0.010765691534
0	55245	574.045630032342	0
0	55297	574.32984617183	0.001867240107
0	55319	574.686164610272	0.014380004103
0	55334	574.70779403329	0.006508004103
0	55352	574.808300561785	0
0	55378	574.908969421311	0.014550822823
0	55392	575.027061228855	0.001695781145
0	55414	575.284864449924	0.004300333675
0	55458	575.599289615258	0.013349656474
0	55539	576.083642838878	0.011478896652
0	55553	576.542818251552	0.004309656474
0	55655	577.518563652317	0.004199781145
0	55669	577.597601216524	0.006683240107
0	55673	577.600426751483	0.010588333675
0	55684	577.613512785384	0.004709656474
0	55706	577.801960999132	0.011821691534
0	55721	577.840019602815	0.024013691534
0	55735	578.046021882953	0.005153304704
0	55811	578.525642916297	0.014262896652
0	55874	578.729524606186	0.010525691534
0	55954	579.444903984052	0.007462896652
0	55983	579.921845398695	0.020413691534
0	56022	580.302915186976	0.015893656474
0	56033	580.357990593366	0.011084333675
0	56051	580.627068677105	0.006633304704
0	56084	580.923297797536	0.009580333675
0	56106	581.473601254034	0.018892004103
0	56132	581.523401015639	0.013733656474
0	56143	581.586561738842	0.010357656474
0	56150	581.636779570768	0.005377304704
0	56153	581.7663169522	0
0	56198	582.139240668211	0.013126896652
0	56238	582.436064989668	0.020581691534
0	56252	582.771639725669	0.008611240107
0	56271	582.806272096076	0.006124333675
0	56371	584.1763984187	0.011301656474
0	56383	584.196490471936	0.024853691534
0	56394	584.216740912354	0.003478896652
0	56547	586.453916503797	0.012028333675
0	56558	586.614458855236	0.007228333675
0	56576	586.851269551153	0.008053656474
0	56583	587.065872276066	0.002809304704
0	56597	587.105786955982	0.005327781145
0	56626	587.282182347342	0.005289304704
0	56675	587.752383314354	0.013501691534
0	56693	587.88994560265	0.002939240107
0	56741	588.28584658507	0.014860004103
0	56813	589.246895976926	0.011772333675
0	56824	589.58611579983	0.009414896652
0	56853	589.883247918472	0.007535781145
0	56875	590.013418602423	0.013126822823
0	56910	590.154996475864	0.003574896652
0	56914	590.15698864783	0.007734822823
0	56975	591.100378524205	0.008278822823
0	57001	591.325207026693	0.011644333675
0	57012	591.427840532044	0.013318896652
0	57082	591.942793749913	0.014278822823
0	57108	592.163486611781	0.019333691534
0	57126	592.305690947558	0.007057304704
0	57133	592.328859085667	0.003343781145
0	57168	593.056600525451	0.002747240107
0	57183	593.203104510689	0.017629691534
0	57198	593.29418861301	0.024277691534
0	57208	593.433148027706	0
0	57245	593.527277137099	0.002979240107
0	57252	593.647305133636	0.003475240107
0	57295	594.521279697992	0.001963240107
0	57302	594.594450771046	0.008027240107
0	57324	594.687649353441	0.008507240107
0	57335	594.737817317833	0.009590822823
0	57383	595.358213474611	0.004385304704
0	57450	596.12095792859	0.008011240107
0	57461	596.29843406754	0.013084333675
0	57472	596.389437810341	0.005740333675
0	57572	597.029239258625	0.025780004103
0	57576	597.031039258625	0.011267446648
0	57598	597.122254855019	0.010885656474
0	57620	597.440797025158	0.009420333675
0	57623	597.618534415024	0
0	57660	597.734038336181	0.019612004103
0	57663	597.784973238031	0
0	57670	597.79056478771	0.005275240107
0	57695	598.243285417326	0.002871781145
0	57735	598.577421096984	0.011020333675
0	57805	599.029330306425	0.008300333675
0	57831	599.209487105929	0.008460333675
0	57845	599.613621445391	0.002839781145
0	57878	599.888769900526	0.025180004103
0	57904	600.340475623106	0.003974822823
0	57915	600.389947127685	0.006709656474
0	57953	600.85610726831	0.009285656474
0	57971	600.976285636743	0.011718822823
0	57981	601.42754541057	0
0	58017	602.171638695735	0.017436333675
0	58163	603.601327617291	0.005967781145
0	58178	603.798445107074	0.008380004103
0	58191	603.838071538193	0
0	58206	603.94187663838	0.006411240107
0	58220	604.174366896048	0.007734896652
0	58246	604.228229781644	0.003909656474
0	58253	604.343124569379	0.008487781145
0	58271	604.392571071013	0.005500333675
0	58286	604.420608429358	0.016684004103
0	58304	604.613391828331	0.013684004103
0	58315	604.649925469626	0.015062896652
0	58326	604.662677893072	0.008710896652
0	58370	604.929845584397	0.009686822823
0	58392	605.286100459882	0
0	58403	605.443327651143	0.011510822823
0	58414	605.483033204118	0.010822896652
0	58440	605.770578657945	0.005078822823
0	58462	605.806497055012	0.006967781145
0	58502	606.065014226469	0.005495781145
0	58524	606.186883091064	0.006052004103
0	58531	606.379429236934	0.004881304704
0	58564	606.688327436679	0.014645656474
0	58657	607.531619972323	0.010588004103
0	58697	607.773922070376	0.014198896652
0	58764	608.054075204809	0.013334896652
0	58800	608.213398380705	0.012892004103
0	58814	608.337721087025	0.002695781145
0	58842	608.699961321715	0.004553304704
0	58871	608.984973565973	0.008836004103
0	58875	608.985696480863	0.003670896652
0	58886	609.252746287859	0.008182822823
0	58915	609.358445411472	0
0	58944	609.638044029997	0.008677691534
0	58969	610.052640915635	0
0	59018	610.631602240138	0.007349656474
0	59021	610.631636807455	0.016957691534
0	59061	610.960887435637	0.026260004103
0	59082	611.26047677856	0.005755240107
0	59089	611.298149196367	0.006063781145
0	59133	611.43806637921	0.006822896652
[...]
2	73517	753.593117176928	0.009401369198
2	73601	754.276179427032	0.032249369198
2	73645	754.642428836343	0.003832977539
2	73702	755.171045546507	0.004465439639
2	73717	755.342111895933	0.004857439639
2	73742	755.620941315815	0.006729439639
2	73779	755.847112750854	0.011065369198
2	73783	755.848478163633	0.006399296488
2	73805	756.195652653712	0.022614219982
2	73835	756.374316223014	0.016230219982
2	73868	756.77123368828	0.029689369198
2	73894	756.913437523569	0.016052332228
2	73935	757.088957400503	0.016351504103
2	73945	757.505183447781	0
2	73959	757.76833677754	0.003553439639
2	73962	757.777611696596	0
2	73977	757.796506055926	0.008276332228
2	73998	757.892378094461	0.005503296488
2	74006	757.907785650071	0.016552977539
2	74076	758.84932748656	0.012895504103
2	74117	759.264744774287	0.010585369198
2	74186	760.029672109482	0.004336391493
2	74197	760.041688955171	0.004376977539
2	74230	760.448160938058	0.015080977539
2	74248	760.504280155291	0.007336977539
2	74271	760.703672187188	0.027097369198
2	74318	761.547475379394	0
2	74369	762.090974665416	0.001729560155
2	74412	762.626991013764	0.004575296488
2	74415	762.698080052098	0
2	74462	763.110715231933	0.015129369198
2	74485	763.19972478485	0.022772332228
2	74500	763.244717150733	0.010735504103
2	74522	763.411671116344	0.004888977539
2	74528	763.434316245169	0
2	74539	763.750053520568	0.005639296488
2	74546	763.921424103171	0.003919296488
2	74570	764.124064588785	0.014240391493
2	74603	764.235188326196	0.008087296488
2	74677	764.555878769981	0.013255504103
2	74691	764.711132287945	0.012160391493
2	74703	764.721655425502	0.012151504103
2	74753	765.074284504795	0
2	74796	765.679883737452	0.002465439639
2	74828	765.882413066523	0
2	74842	766.143947970782	0.004776977539
2	74853	766.171689479375	0.017904391493
2	74886	766.548031101834	0.011454219982
2	74934	766.714625553503	0.032281369198
2	74949	766.990463130594	0.025567504103
2	74985	767.669739569579	0.007761439639
2	74999	767.879539420902	0.008519296488
2	75119	769.223624045507	0.012336391493
2	75153	769.587711969289	0.016441369198
2	75171	769.672511317788	0.006743296488
2	75234	770.223397886662	0.022220332228
2	75262	770.41358673052	0.025542219982
2	75277	770.548009259162	0.018679504103
2	75288	770.729245456416	0.017584391493
2	75303	770.913471785886	0.008335504103
2	75314	770.99883289537	0.012032391493
2	75332	771.22372232585	0.008800391493
2	75360	772.33556281717	0
2	75389	772.76032228216	0.024284332228
2	75410	772.890334488489	0.004521439639
2	75432	772.98127506462	0.025412332228
2	75457	773.195200992132	0.009343504103
2	75490	773.456174465296	0.009960977539
2	75534	773.838500376965	0.006668332228
2	75567	773.921743115165	0.007177560155
2	75578	773.936441149211	0.005081560155
2	75647	774.667421046668	0.009439504103
2	75685	775.035521472352	0.007863296488
2	75735	775.961170789366	0.014792977539
2	75749	776.268231869739	0.002681560155
2	75764	776.357815051628	0.023252332228
2	75782	776.573746369747	0.009040391493
2	75800	777.118131277027	0.008688391493
2	75807	777.22455285407	0.004225439639
2	75844	777.495003186958	0.006223504103
2	75928	778.219127203262	0.005689439639
2	75939	778.263755839879	0.011328391493
2	75953	778.501122930601	0.006184977539
2	75967	778.918585699732	0.006808977539
2	75975	778.925238116714	0.008656391493
2	76001	779.088461756242	0.011732332228
2	76016	779.410600149391	0.022783504103
2	76066	779.846361998701	0
2	76080	779.920875239317	0.009025439639
2	76091	779.985533515537	0.004808977539
2	76117	780.122314959717	0.021342219982
2	76132	780.181588094407	0.021836332228
2	76147	780.214901224981	0.012740332228
2	76169	780.334301886392	0.010056977539
2	76206	780.565222230365	0.013782219982
2	76228	780.654605252651	0.015641369198
2	76331	781.949626484209	0.009672977539
2	76360	782.187500574579	0.007023296488
2	76378	782.273314752371	0.020444332228
2	76393	782.31357001102	0.010806219982
2	76415	782.546623693183	0.008760977539
2	76437	782.657334983253	0.009031504103
2	76529	783.144720920882	0.019772332228
2	76586	783.514943034834	0.002433439639
2	76600	783.762078900479	0.007032977539
2	76624	784.006231175466	0
2	76640	784.036723903519	0.034457369198
2	76654	784.107740225394	0.016480391493
2	76657	784.15176794645	0
2	76664	784.38999642598	0.002473439639
2	76700	784.661832513341	0.008464391493
2	76707	784.69580120118	0.006649560155
2	76746	784.880896905691	0.014360977539
2	76817	785.855460948684	0.003695296488
2	76838	786.498648991061	0.003608977539
2	76910	787.403226599493	0.019015504103
2	76921	787.453101180038	0.012040977539
2	76928	787.479854496253	0.005801439639
2	77004	788.17747715102	0.024391504103
2	77028	788.252118840076	0.008943296488
2	77117	789.305932123846	0.019759504103
2	77167	789.497543654815	0.012368391493
2	77178	789.574448331915	0.008425439639
2	77208	789.612068159462	0.008815504103
2	77233	789.867006312406	0.003649439639
2	77249	789.878872349888	0.014585369198
2	77279	790.272882303209	0.016854219982
2	77290	790.409945578095	0.005888391493
2	77301	790.429572235264	0.013624977539
2	77308	790.606749147842	0.008953439639
2	77357	791.512754362809	0
2	77360	791.846438759872	0
2	77371	791.886253510518	0.008704391493
2	77421	792.529265462625	0.009497369198
2	77450	792.845553623747	0.023503504103
2	77453	792.895790132867	0
2	77460	792.951331723257	0.006375296488
2	77511	793.26213060324	0.025158219982
2	77568	793.787972452434	0.002457439639
2	77589	794.346484728003	0
2	77624	794.5893993159	0
2	77638	794.641661667108	0.004369439639
2	77699	795.15635870297	0.013368977539
2	77706	795.464331884997	0.004697560155
2	77717	795.509411698608	0.013944977539
2	77735	795.625520929679	0.013472391493
2	77775	796.049775974673	0.013172332228
2	77796	796.757444161768	0
2	77836	797.262096278723	0.006455296488
2	77876	797.669584594292	0.025110219982
2	77905	798.038983781065	0.005919296488
2	77944	798.847525802453	0.003888391493
2	77966	798.979516085042	0.024750219982
2	77987	799.392835190738	0.007527296488
2	78039	800.315923710196	0.004745439639
2	78170	801.893239627035	0
2	78188	802.074969523126	0.014024977539
2	78228	802.799887973719	0.017497369198
2	78253	803.137496256738	0.014335504103
2	78282	803.585093287023	0.007556332228
2	78296	803.888908640378	0.007065560155
2	78359	804.351549814176	0
2	78375	804.385143648794	0.034009369198
2	78393	804.576040769661	0.008633560155
2	78426	804.678632616378	0.025220332228
2	78441	804.70427572457	0.004720391493
2	78455	804.800909296493	0.008735296488
2	78502	805.424693352121	0.017232391493
2	78532	805.814264406125	0.014828332228
2	78543	805.826940583971	0.018188332228
2	78583	806.438448112721	0.018329369198
2	78684	808.0908474016	0.004735296488
2	78706	808.1596327998	0.025940332228
2	78728	808.228376844154	0.024153369198
2	78786	808.877773891398	0.017119504103
2	78825	809.349839818668	0.005204332228
2	78843	809.459154790809	0.010772332228
2	78858	809.470281471052	0.017456391493
2	78865	809.542481684435	0.002215296488
2	78868	810.094631623656	0
2	78892	810.420395082252	0.004023296488
2	78936	810.573715476154	0.003960977539
2	79065	811.690194980826	0.009544977539
2	79089	812.108112132419	0
2	79193	812.942927277534	0.034201369198
2	79225	813.657813249082	0.003665439639
2	79240	813.788140173494	0.006463504103
2	79309	814.243554893701	0.016999504103
2	79367	815.048173286036	0.018233369198
2	79374	815.185149938431	0.007375296488
2	79404	815.281357499893	0.030425369198
2	79411	815.291975155768	0.007489439639
2	79439	815.715956238656	0
2	79453	815.845025059978	0.007217439639
2	79468	815.900306536625	0.025374219982
2	79486	816.035150612062	0.006345439639
2	79504	816.157093604817	0.002569439639
2	79518	816.65967928942	0.002807296488
2	79532	816.908848618971	0.006207296488
2	79551	817.057554744096	0.022425369198
2	79584	817.396166949136	0.015608977539
2	79599	817.555080730588	0.006452332228
2	79650	817.914704825602	0.024679504103
2	79661	817.952587513334	0.016016391493
2	79679	818.133450027288	0.005671296488
2	79701	818.758956350059	0.019820332228
2	79704	818.798948253841	0
2	79741	819.17373400597	0.005407504103
2	79760	819.28154090752	0.029497369198
2	79767	819.57543217712	0.007319296488
2	79785	820.015206073399	0.012208391493
2	79858	821.386907778078	0.022327504103
2	79980	821.651649343305	0.024249369198
2	80002	821.729727737957	0.005095296488
2	80028	821.952882166656	0.015904391493
2	80035	822.296709153358	0.008481560155
2	80075	822.977885095468	0.021870219982
2	80090	823.055160985911	0.021727504103
2	80163	823.734499752217	0.010745369198
2	80166	823.773971487911	0
2	80206	824.047198162686	0
2	80235	824.353184046974	0.015360391493
2	80317	825.698474490186	0
2	80335	826.537324136836	0.004711296488
2	80350	826.583969172426	0.014935504103
2	80445	827.24970779492	0.007064977539
2	80459	827.531677814727	0.008177439639
2	80489	827.731474890277	0.007687504103
2	80511	827.794851224336	0.004608391493
2	80533	827.952562714089	0.016192391493
2	80570	828.114039005384	0.013567504103
2	80577	828.199109951127	0.006337560155
2	80588	828.220047996794	0.012000391493
2	80602	828.426077668179	0.004017439639
2	80612	828.497658515585	0.002161439639
2	80664	829.278671610846	0.017744391493
2	80678	829.478234744764	0
2	80697	829.532924998907	0.007129369198
2	80719	829.850017674	0.006081439639
2	80752	830.248783334379	0.004687296488
2	80759	830.525479746474	0.002601439639
2	80774	830.644274006334	0.026382219982
2	80800	830.731917827389	0.010807504103
2	80818	830.997040127473	0.008968977539
2	80853	831.451590520453	0.011560977539
2	80895	831.732162198281	0.026681369198
2	80910	831.763846440131	0.018558219982
2	80925	831.910907003918	0.006188332228
2	80940	831.968932578133	0.008612332228
2	80992	832.539665266379	0.009808391493
2	81036	832.63098158539	0.010840977539
2	81054	833.16324545341	0.007377439639
2	81118	833.726106867121	0.004001439639
2	81168	834.111343362289	0.021918219982
2	81180	834.133899172457	0.025868332228
2	81228	834.40590095795	0.012281369198
2	81300	835.20593396859	0.002113439639
2	81307	835.319647771483	0.002033439639
2	81372	835.902738751327	0.028505369198
2	81405	835.933327122446	0.007919219238
2	81413	835.941695122446	0.01656115589
2	81457	836.400270752181	0.023694219982
2	81519	836.650454154588	0.010687504103
2	81544	836.99492239428	0.006647296488
2	81580	837.177876649159	0.007825439639
2	81587	837.290891762823	0.009009439639
2	81612	837.640475051837	0.005529439639
2	81634	838.140665253566	0.009945369198
2	81641	838.310291356534	0.004601560155
2	81677	838.79053609939	0.005896977539
2	81729	839.367422632914	0.006740332228
2	81748	839.405577924364	0.010748332228
2	81755	839.411905281978	0.010864391493
2	81777	839.626375499756	0.003337560155
2	81795	839.807485838807	0.005472391493
2	81828	840.127978529505	0.002137560155
2	81835	840.160295567884	0.007345439639
2	81850	840.231212950791	0.006462219982
2	81885	841.021276141978	0
2	81892	841.179445694779	0.007153560155
2	81895	841.216371660911	0
2	81902	841.228114716802	0.002391296488
2	81917	841.280543895921	0.013230219982
2	81947	841.530410604691	0.022052332228
2	81962	841.844155349262	0.011647504103
2	81983	842.330968552314	0.008119296488
2	81994	842.350718355916	0.006296977539
2	82001	842.487961697993	0.003167296488
2	82004	842.516498115969	0
2	82063	843.10971491225	0.034553369198
2	82125	843.463450105668	0.006935296488
2	82147	843.513502271603	0.020732332228
2	82166	843.675430205571	0.033977369198
2	82206	844.152337517852	0
2	82213	844.158897617787	0.004841560155
2	82245	844.632793672743	0.008335504103
2	82275	844.822548138669	0.024057369198
2	82290	844.991567446555	0.008551504103
2	82293	845.137038079249	0
2	82344	845.577829345111	0.006048391493
2	82355	845.705015869824	0.012848391493
2	82377	845.756481969651	0.015833369198
2	82423	846.618759971566	0.022124332228
2	82426	846.693112699888	0
2	82447	846.808866992209	0.009400977539
2	82466	846.886755910524	0.011756332228
2	82480	847.011992038134	0
2	82494	847.14902913047	0
2	82497	847.239181330379	0
2	82512	847.357544542095	0.006788332228
2	82519	847.512563879732	0.006951296488
2	82526	847.56213003884	0.002209439639
2	82559	847.913411857447	0.008423296488
2	82573	848.45328456096	0.005047296488
2	82610	848.81111800362	0.016400391493
2	82632	848.981061490609	0.004992391493
2	82660	849.312217967386	0.003239296488
2	82697	849.523653754363	0.005120391493
2	82723	849.658210470326	0.019364332228
2	82734	849.830368781727	0.014264977539
2	82763	850.50757382538	0.005335296488
2	82773	850.861318086616	0.002263296488
2	82794	851.12064321817	0.004113560155
2	82842	851.555803855822	0.006943504103
2	82854	851.566319937091	0.019897369198
2	82884	851.644485542911	0.007993369198
2	82890	851.746784562264	0
2	82904	852.004689063765	0
2	82923	852.110161566056	0.007993369198
2	82945	852.42145521273	0.021606219982
2	82959	852.585338608663	0.004345560155
2	82970	852.904378242913	0.013976977539
2	82984	852.96601772084	0.002081439639
2	83046	853.148004898674	0.017526219982
2	83172	854.366157891453	0.005609560155
2	83198	854.41565110325	0.012312977539
2	83241	854.576725939266	0.011888391493
2	83253	854.588938887788	0.018585369198
2	83286	855.026567219607	0.006360977539
2	83337	855.763957749396	0.006128391493
2	83355	855.962790949	0.021630219982
2	83377	856.260123171672	0.007761439639
2	83384	856.3107065829	0.004617560155
2	83395	856.356652037306	0.016880391493
2	83428	856.626932813911	0.029049369198
2	83432	856.628939637591	0.011840391493
2	83458	856.782254629772	0.007399504103
2	83494	857.204436544033	0
2	83513	857.551128937946	0.025049369198
2	83538	857.792325341417	0.009864977539
2	83553	857.87351561284	0.018822219982
2	83571	858.056021798245	0.008017439639
2	83610	858.299950414364	0
2	83617	858.345849237262	0.003025439639
2	83753	859.82229590479	0.019758219982
2	83783	860.188193868765	0.029081369198
2	83852	861.189642223405	0.007441439639
2	83877	861.371028470754	0.010440977539
2	84001	863.302331275756	0.010518219982
2	84054	863.662650145862	0.011144977539
2	84112	864.067041082218	0.002265560155
2	84174	864.518838175588	0.007124332228
2	84257	865.520722125797	0.006452332228
2	84264	865.821701418612	0.007871296488
2	84275	866.263214009304	0.006568977539
2	84301	866.441608374347	0.006007504103
2	84330	866.699735514978	0.015871504103
2	84424	868.23680122642	0.005879296488
2	84435	868.25810714705	0.007265439639
2	84471	868.469748236065	0
2	84539	869.523121822845	0.002313560155
2	84558	869.603502680049	0.023737369198
2	84605	870.164898864207	0.005289439639
2	84671	870.615852013318	0.005468332228
2	84715	870.948468840989	0.017742219982
2	84723	870.959658715512	0.023022219982
2	84748	871.038927273656	0
2	84758	871.240448725251	0
2	84783	871.457464063384	0.003881560155
2	84816	872.64764365719	0.015127504103
2	84856	872.847396354138	0.009088391493
2	84918	873.339921264022	0.016576391493
2	84958	873.680359651519	0
2	84976	873.997325135206	0
2	84991	874.185334108732	0.012631504103
2	85048	875.006533183469	0
2	85070	875.18357864636	0.006624391493
2	85107	875.485246382169	0.033529369198
2	85129	875.679383125451	0.006209439639
2	85136	875.687861608722	0.005559296488
2	85147	875.888757693572	0.011400977539
2	85169	875.975014067355	0.010926219982
2	85191	876.217939231209	0.019566219982
2	85218	877.118866109056	0.008137560155
2	85233	877.252032656209	0.023156332228
2	85252	877.284977438753	0.009849369198
2	85298	877.999926590231	0.004303296488
2	85336	878.041489249782	0.010041369198
2	85340	878.042738854893	0.003128977539
2	85388	878.504865379083	0.007712391493
2	85403	878.686795800545	0.019086219982
2	85425	879.552295656568	0.019158219982
2	85432	879.572319700314	0.003777439639
2	85465	879.819428542662	0.003519296488
2	85490	879.916776960621	0.004585439639
2	85509	880.145376606297	0.033625369198
2	85552	880.753971445678	0.003471296488
2	85592	880.863491519014	0.009280391493
2	85611	881.082858136495	0.009428332228
2	85618	881.192621518424	0.004569439639
2	85633	881.350746165581	0.011959504103
2	85658	881.542215047913	0.005641439639
2	85676	881.598961102521	0.008136977539
2	85694	881.82250920161	0.016412332228
2	85727	882.263529908495	0.015798219982
2	85763	883.310000348406	0.009367504103
2	85805	883.725404907012	0.003089560155
2	85849	884.098274421068	0.014056977539
2	85863	884.224625535231	0.008193439639
2	85903	884.755900848571	0.015548332228
2	85918	884.774539262071	0.016676332228
2	85952	884.871103565172	0.025561369198
2	86005	885.302726680272	0.012800391493
2	86045	885.733450620079	0.006336391493
2	86059	885.938030962478	0.008289560155
2	86113	886.922867775041	0.002111296488
2	86128	886.954920265291	0.007759504103
2	86146	887.344596271076	0.004112391493
2	86157	887.450425892601	0.008496391493
2	86179	887.527230015845	0.015752977539
2	86251	888.10437472549	0.013776391493
2	86255	888.10875872549	0.010170260124
2	86298	888.950952457819	0
2	86338	889.544486333993	0.018318219982
2	86349	889.724312114413	0.012752391493
2	86352	889.824146004686	0
2	86367	889.976707293483	0.009439504103
2	86396	890.233264380068	0.005040391493
2	86421	890.559804877187	0.010604332228
2	86465	890.75489067329	0.015513369198
2	86570	892.208871214196	0.007055296488
2	86638	893.017957202331	0.007625560155
2	86654	893.034928001721	0.018681369198
2	86691	893.36919231894	0.008684332228
2	86745	894.207051837137	0.010159504103
2	86767	894.321463702268	0.009896977539
2	86770	894.716697648787	0
2	86814	895.179384051038	0.017598219982
2	86821	895.19146681482	0.004481560155
2	86835	895.306679459913	0
2	86882	895.86754689195	0
2	86889	896.020066982132	0.006041560155
2	86936	896.532626859334	0.006151296488
2	86947	896.634724062988	0.009328391493
2	86961	896.786541144031	0.008663296488
2	87001	897.244001653401	0.012648977539
2	87008	897.553508135681	0.005839296488
2	87045	897.587748632183	0.008070219982
2	87067	897.639845808134	0.003840391493
2	87071	897.641588922455	0.011804332228
2	87100	897.773328167187	0
2	87115	897.855735707395	0.019063504103
2	87118	897.895223182581	0
2	87139	898.153039414295	0
2	87164	898.499397893349	0.015824391493
2	87193	898.677392418544	0.018486219982
2	87200	898.71985658128	0.003481560155
2	87211	898.922487598469	0.016088977539
2	87250	899.648216554453	0.022777369198
2	87261	899.833849140696	0.006600977539
2	87286	900.031227419932	0.012872977539
2	87301	900.194768603761	0.017503504103
2	87330	900.411504849695	0.010279504103
2	87345	900.526066879109	0.019028332228
2	87386	900.981662727404	0.021753369198
2	87426	901.467983653783	0.019609369198
2	87441	901.494416593486	0.020503504103
2	87494	902.156937738515	0.001713560155
2	87541	902.528095506098	0.013567504103
2	87574	902.844521165585	0.022297369198
2	87589	902.890862334664	0.019927504103
2	87596	903.10263390394	0.007361439639
2	87603	903.210727823351	0.006233560155
2	87632	903.640150775569	0.008673560155
2	87688	903.962523015644	0.010105369198
2	87706	904.118364502502	0
2	87785	904.974969998216	0.006473560155
2	87844	905.362423147868	0.007096977539
2	87897	905.719214272077	0.004871296488
2	87904	905.868693264162	0.004023296488
2	87911	906.112828724257	0.008673560155
2	87922	906.174231556345	0.005144977539
2	87965	906.709544385657	0.006977560155
2	87980	906.787504269732	0.025436332228
2	88009	907.06089048745	0.013752977539
2	88020	907.100962154246	0.009384977539
2	88031	907.285046106656	0.009096977539
2	88045	907.522099973724	0.015664391493
2	88099	907.895551276929	0.005255296488
2	88147	908.189116529037	0.019110219982
2	88169	908.279329853258	0.008512391493
2	88176	908.312401512054	0.003943296488
2	88186	908.500431934367	0
2	88204	908.784403509882	0.016352391493
2	88247	909.322924789043	0
2	88265	909.415358959186	0.009270219982
2	88268	909.462343120031	0
2	88311	910.206247259492	0.005127296488
2	88336	910.352455304583	0.004169439639
2	88358	910.588432600486	0.016376977539
2	88384	910.80471319008	0.019975504103
2	88439	911.500595193956	0.006217439639
2	88472	912.065760075472	0.008320391493
2	88505	912.17974964696	0.007388332228
2	88524	912.258136758088	0.010521369198
2	88608	913.005621512972	0
2	88621	913.149620173868	0
2	88640	913.378469174314	0.006664977539
2	88698	913.902925302193	0.021246219982
2	88709	913.935142746341	0.006633439639
2	88738	914.136296182318	0.005550219982

