version 2
run Net10-0-20180225-20:11:08-4196
attr configname Net10
attr datetime 20180225-20:11:08
attr experiment Net10
attr inifile omnetpp.ini
attr iterationvars ""
attr iterationvarsf ""
attr measurement ""
attr network networks.Net10
attr processid 4196
attr repetition 0
attr replication #0
attr resultdir results
attr runnumber 0
attr seedset 0
param **.app.packetLength "uniform(128 byte, 1024 byte)"
param **.destAddresses "\"1 6 8\""
param **.appType "\"App\""
param **.app.packetLength "4096 bytes"

scalar Net10.rte[0].app hopCount:mean nan
attr interpolationmode none
attr title "hop count of arrived packets, mean"
scalar Net10.rte[0].app hopCount:max nan
attr interpolationmode none
attr title "hop count of arrived packets, max"
scalar Net10.rte[0].app endToEndDelay:mean nan
attr interpolationmode none
attr title "end-to-end delay of arrived packets, mean"
attr unit s
scalar Net10.rte[0].app endToEndDelay:max nan
attr interpolationmode none
attr title "end-to-end delay of arrived packets, max"
attr unit s
statistic Net10.rte[0].routing outputIf:histogram
field count 2120
field mean 0.42877358490566
field stddev 0.72871554019283
field min 0
field max 2
field sum 909
field sqrsum 1515
attr interpolationmode none
attr title "output interface for each routed packet, histogram"
bin	-inf	0
bin	-1	0
bin	0	1514
bin	1	303
bin	2	303
bin	3	0
scalar Net10.rte[0].routing drop:count 0
attr interpolationmode none
attr title "dropped packet byte length, count"
attr unit bytes
scalar Net10.rte[0].routing drop:sum 0
attr interpolationmode none
attr title "dropped packet byte length, sum"
attr unit bytes
scalar Net10.rte[0].queue[0] rxBytes:count 0
attr interpolationmode none
attr title "received packet byte length, count"
attr unit bytes
scalar Net10.rte[0].queue[0] rxBytes:sum 0
attr interpolationmode none
attr title "received packet byte length, sum"
attr unit bytes
statistic Net10.rte[0].queue[0] rxBytes:histogram
field count 0
field mean nan
field stddev nan
field min nan
field max nan
field sum 0
field sqrsum 0
attr interpolationmode none
attr title "received packet byte length, histogram"
attr unit bytes
bin	-inf	0
bin	-0.5	0
bin	-0.46666666666667	0
bin	-0.43333333333333	0
bin	-0.4	0
bin	-0.36666666666667	0
bin	-0.33333333333333	0
bin	-0.3	0
bin	-0.26666666666667	0
bin	-0.23333333333333	0
bin	-0.2	0
bin	-0.16666666666667	0
bin	-0.13333333333333	0
bin	-0.1	0
bin	-0.066666666666667	0
bin	-0.033333333333333	0
bin	0	0
bin	0.033333333333333	0
bin	0.066666666666667	0
bin	0.1	0
bin	0.13333333333333	0
bin	0.16666666666667	0
bin	0.2	0
bin	0.23333333333333	0
bin	0.26666666666667	0
bin	0.3	0
bin	0.33333333333333	0
bin	0.36666666666667	0
bin	0.4	0
bin	0.43333333333333	0
bin	0.46666666666667	0
bin	0.5	0
scalar Net10.rte[0].queue[0] txBytes:count 1514
attr interpolationmode none
attr title "transmitting packet byte length, count"
attr unit bytes
scalar Net10.rte[0].queue[0] txBytes:sum 862877
attr interpolationmode none
attr title "transmitting packet byte length, sum"
attr unit bytes
statistic Net10.rte[0].queue[0] txBytes:histogram
field count 1514
field mean 569.9319682959
field stddev 259.05334295506
field min 128
field max 1022
field sum 862877
field sqrsum 593316551
attr interpolationmode none
attr title "transmitting packet byte length, histogram"
attr unit bytes
bin	-inf	0
bin	-307	0
bin	-298	0
bin	-289	0
bin	-280	0
bin	-271	0
bin	-262	0
bin	-253	0
bin	-244	0
bin	-235	0
bin	-226	0
bin	-217	0
bin	-208	0
bin	-199	0
bin	-190	0
bin	-181	0
bin	-172	0
bin	-163	0
bin	-154	0
bin	-145	0
bin	-136	0
bin	-127	0
bin	-118	0
bin	-109	0
bin	-100	0
bin	-91	0
bin	-82	0
bin	-73	0
bin	-64	0
bin	-55	0
bin	-46	0
bin	-37	0
bin	-28	0
bin	-19	0
bin	-10	0
bin	-1	0
bin	8	0
bin	17	0
bin	26	0
bin	35	0
bin	44	0
bin	53	0
bin	62	0
bin	71	0
bin	80	0
bin	89	0
bin	98	0
bin	107	0
bin	116	0
bin	125	9
bin	134	13
bin	143	17
bin	152	18
bin	161	19
bin	170	17
bin	179	20
bin	188	12
bin	197	15
bin	206	20
bin	215	12
bin	224	18
bin	233	12
bin	242	14
bin	251	12
bin	260	15
bin	269	16
bin	278	16
bin	287	10
bin	296	13
bin	305	26
bin	314	13
bin	323	13
bin	332	14
bin	341	23
bin	350	12
bin	359	14
bin	368	18
bin	377	9
bin	386	17
bin	395	18
bin	404	15
bin	413	20
bin	422	15
bin	431	13
bin	440	17
bin	449	15
bin	458	13
bin	467	16
bin	476	18
bin	485	25
bin	494	11
bin	503	19
bin	512	15
bin	521	23
bin	530	22
bin	539	11
bin	548	20
bin	557	6
bin	566	15
bin	575	14
bin	584	11
bin	593	10
bin	602	3
bin	611	18
bin	620	21
bin	629	18
bin	638	8
bin	647	13
bin	656	12
bin	665	16
bin	674	15
bin	683	16
bin	692	8
bin	701	17
bin	710	13
bin	719	15
bin	728	15
bin	737	13
bin	746	26
bin	755	15
bin	764	17
bin	773	14
bin	782	16
bin	791	11
bin	800	21
bin	809	17
bin	818	15
bin	827	14
bin	836	11
bin	845	18
bin	854	13
bin	863	10
bin	872	19
bin	881	20
bin	890	14
bin	899	13
bin	908	16
bin	917	16
bin	926	15
bin	935	21
bin	944	12
bin	953	10
bin	962	16
bin	971	14
bin	980	21
bin	989	14
bin	998	14
bin	1007	11
bin	1016	10
bin	1025	0
bin	1034	0
bin	1043	0
bin	1052	0
bin	1061	0
bin	1070	0
bin	1079	0
bin	1088	0
bin	1097	0
bin	1106	0
bin	1115	0
bin	1124	0
bin	1133	0
bin	1142	0
bin	1151	0
bin	1160	0
bin	1169	0
bin	1178	0
bin	1187	0
bin	1196	0
bin	1205	0
bin	1214	0
bin	1223	0
bin	1232	0
bin	1241	0
bin	1250	0
bin	1259	0
bin	1268	0
bin	1277	0
bin	1286	0
bin	1295	0
bin	1304	0
bin	1313	0
bin	1322	0
bin	1331	0
bin	1340	0
bin	1349	0
bin	1358	0
bin	1367	0
bin	1376	0
bin	1385	0
bin	1394	0
bin	1403	0
bin	1412	0
bin	1421	0
bin	1430	0
bin	1439	0
bin	1448	0
bin	1457	0
bin	1466	0
scalar Net10.rte[0].queue[0] busy:timeavg 0.0075493455767363
attr interpolationmode sample-hold
attr title "server busy state, timeavg"
scalar Net10.rte[0].queue[0] qlen:timeavg 1.1126576705342e-005
attr interpolationmode sample-hold
attr title "queue length, timeavg"
scalar Net10.rte[0].queue[0] qlen:max 1
attr interpolationmode sample-hold
attr title "queue length, max"
scalar Net10.rte[0].queue[0] drop:count 0
attr interpolationmode none
attr title "dropped packet byte length, count"
attr unit bytes
scalar Net10.rte[0].queue[0] drop:sum 0
attr interpolationmode none
attr title "dropped packet byte length, sum"
attr unit bytes
scalar Net10.rte[0].queue[1] rxBytes:count 0
attr interpolationmode none
attr title "received packet byte length, count"
attr unit bytes
scalar Net10.rte[0].queue[1] rxBytes:sum 0
attr interpolationmode none
attr title "received packet byte length, sum"
attr unit bytes
statistic Net10.rte[0].queue[1] rxBytes:histogram
field count 0
field mean nan
field stddev nan
field min nan
field max nan
field sum 0
field sqrsum 0
attr interpolationmode none
attr title "received packet byte length, histogram"
attr unit bytes
bin	-inf	0
bin	-0.5	0
bin	-0.46666666666667	0
bin	-0.43333333333333	0
bin	-0.4	0
bin	-0.36666666666667	0
bin	-0.33333333333333	0
bin	-0.3	0
bin	-0.26666666666667	0
bin	-0.23333333333333	0
bin	-0.2	0
bin	-0.16666666666667	0
bin	-0.13333333333333	0
bin	-0.1	0
bin	-0.066666666666667	0
bin	-0.033333333333333	0
bin	0	0
bin	0.033333333333333	0
bin	0.066666666666667	0
bin	0.1	0
bin	0.13333333333333	0
bin	0.16666666666667	0
bin	0.2	0
bin	0.23333333333333	0
bin	0.26666666666667	0
bin	0.3	0
bin	0.33333333333333	0
bin	0.36666666666667	0
bin	0.4	0
bin	0.43333333333333	0
bin	0.46666666666667	0
bin	0.5	0
scalar Net10.rte[0].queue[1] txBytes:count 303
attr interpolationmode none
attr title "transmitting packet byte length, count"
attr unit bytes
scalar Net10.rte[0].queue[1] txBytes:sum 177318
attr interpolationmode none
attr title "transmitting packet byte length, sum"
attr unit bytes
statistic Net10.rte[0].queue[1] txBytes:histogram
field count 303
field mean 585.20792079208
field stddev 253.79880635897
field min 128
field max 1016
field sum 177318
field sqrsum 123220876
attr interpolationmode none
attr title "transmitting packet byte length, histogram"
attr unit bytes
bin	-inf	0
bin	-319	0
bin	-310	0
bin	-301	0
bin	-292	0
bin	-283	0
bin	-274	0
bin	-265	0
bin	-256	0
bin	-247	0
bin	-238	0
bin	-229	0
bin	-220	0
bin	-211	0
bin	-202	0
bin	-193	0
bin	-184	0
bin	-175	0
bin	-166	0
bin	-157	0
bin	-148	0
bin	-139	0
bin	-130	0
bin	-121	0
bin	-112	0
bin	-103	0
bin	-94	0
bin	-85	0
bin	-76	0
bin	-67	0
bin	-58	0
bin	-49	0
bin	-40	0
bin	-31	0
bin	-22	0
bin	-13	0
bin	-4	0
bin	5	0
bin	14	0
bin	23	0
bin	32	0
bin	41	0
bin	50	0
bin	59	0
bin	68	0
bin	77	0
bin	86	0
bin	95	0
bin	104	0
bin	113	0
bin	122	3
bin	131	5
bin	140	2
bin	149	2
bin	158	2
bin	167	5
bin	176	2
bin	185	2
bin	194	2
bin	203	6
bin	212	1
bin	221	7
bin	230	2
bin	239	2
bin	248	4
bin	257	1
bin	266	2
bin	275	3
bin	284	2
bin	293	0
bin	302	1
bin	311	1
bin	320	1
bin	329	4
bin	338	0
bin	347	3
bin	356	4
bin	365	0
bin	374	0
bin	383	1
bin	392	6
bin	401	8
bin	410	2
bin	419	2
bin	428	4
bin	437	3
bin	446	6
bin	455	3
bin	464	1
bin	473	0
bin	482	7
bin	491	1
bin	500	4
bin	509	3
bin	518	1
bin	527	3
bin	536	6
bin	545	6
bin	554	5
bin	563	3
bin	572	3
bin	581	4
bin	590	5
bin	599	1
bin	608	3
bin	617	6
bin	626	3
bin	635	5
bin	644	1
bin	653	0
bin	662	3
bin	671	6
bin	680	6
bin	689	1
bin	698	2
bin	707	6
bin	716	6
bin	725	5
bin	734	4
bin	743	0
bin	752	4
bin	761	0
bin	770	2
bin	779	3
bin	788	4
bin	797	4
bin	806	3
bin	815	4
bin	824	2
bin	833	2
bin	842	3
bin	851	4
bin	860	4
bin	869	4
bin	878	3
bin	887	3
bin	896	3
bin	905	0
bin	914	3
bin	923	4
bin	932	3
bin	941	2
bin	950	1
bin	959	4
bin	968	3
bin	977	2
bin	986	5
bin	995	2
bin	1004	4
bin	1013	4
bin	1022	0
bin	1031	0
bin	1040	0
bin	1049	0
bin	1058	0
bin	1067	0
bin	1076	0
bin	1085	0
bin	1094	0
bin	1103	0
bin	1112	0
bin	1121	0
bin	1130	0
bin	1139	0
bin	1148	0
bin	1157	0
bin	1166	0
bin	1175	0
bin	1184	0
bin	1193	0
bin	1202	0
bin	1211	0
bin	1220	0
bin	1229	0
bin	1238	0
bin	1247	0
bin	1256	0
bin	1265	0
bin	1274	0
bin	1283	0
bin	1292	0
bin	1301	0
bin	1310	0
bin	1319	0
bin	1328	0
bin	1337	0
bin	1346	0
bin	1355	0
bin	1364	0
bin	1373	0
bin	1382	0
bin	1391	0
bin	1400	0
bin	1409	0
bin	1418	0
bin	1427	0
bin	1436	0
bin	1445	0
bin	1454	0
bin	1463	0
scalar Net10.rte[0].queue[1] busy:timeavg 0.0015513623134882
attr interpolationmode sample-hold
attr title "server busy state, timeavg"
scalar Net10.rte[0].queue[1] qlen:timeavg 3.4282582209763e-006
attr interpolationmode sample-hold
attr title "queue length, timeavg"
scalar Net10.rte[0].queue[1] qlen:max 1
attr interpolationmode sample-hold
attr title "queue length, max"
scalar Net10.rte[0].queue[1] drop:count 0
attr interpolationmode none
attr title "dropped packet byte length, count"
attr unit bytes
scalar Net10.rte[0].queue[1] drop:sum 0
attr interpolationmode none
attr title "dropped packet byte length, sum"
attr unit bytes
scalar Net10.rte[0].queue[2] rxBytes:count 1231
attr interpolationmode none
attr title "received packet byte length, count"
attr unit bytes
scalar Net10.rte[0].queue[2] rxBytes:sum 695383
attr interpolationmode none
attr title "received packet byte length, sum"
attr unit bytes
statistic Net10.rte[0].queue[2] rxBytes:histogram
field count 1231
field mean 564.89277010561
field stddev 260.18230920041
field min 128
field max 1022
field sum 695383
field sqrsum 476081475
attr interpolationmode none
attr title "received packet byte length, histogram"
attr unit bytes
bin	-inf	0
bin	-307	0
bin	-298	0
bin	-289	0
bin	-280	0
bin	-271	0
bin	-262	0
bin	-253	0
bin	-244	0
bin	-235	0
bin	-226	0
bin	-217	0
bin	-208	0
bin	-199	0
bin	-190	0
bin	-181	0
bin	-172	0
bin	-163	0
bin	-154	0
bin	-145	0
bin	-136	0
bin	-127	0
bin	-118	0
bin	-109	0
bin	-100	0
bin	-91	0
bin	-82	0
bin	-73	0
bin	-64	0
bin	-55	0
bin	-46	0
bin	-37	0
bin	-28	0
bin	-19	0
bin	-10	0
bin	-1	0
bin	8	0
bin	17	0
bin	26	0
bin	35	0
bin	44	0
bin	53	0
bin	62	0
bin	71	0
bin	80	0
bin	89	0
bin	98	0
bin	107	0
bin	116	0
bin	125	9
bin	134	7
bin	143	13
bin	152	15
bin	161	18
bin	170	15
bin	179	17
bin	188	9
bin	197	14
bin	206	17
bin	215	10
bin	224	17
bin	233	11
bin	242	12
bin	251	9
bin	260	15
bin	269	14
bin	278	15
bin	287	7
bin	296	12
bin	305	20
bin	314	12
bin	323	10
bin	332	11
bin	341	17
bin	350	9
bin	359	13
bin	368	18
bin	377	7
bin	386	14
bin	395	14
bin	404	11
bin	413	15
bin	422	13
bin	431	9
bin	440	15
bin	449	11
bin	458	11
bin	467	11
bin	476	12
bin	485	21
bin	494	9
bin	503	12
bin	512	15
bin	521	18
bin	530	19
bin	539	10
bin	548	17
bin	557	6
bin	566	14
bin	575	9
bin	584	9
bin	593	9
bin	602	3
bin	611	14
bin	620	19
bin	629	17
bin	638	5
bin	647	9
bin	656	5
bin	665	14
bin	674	11
bin	683	12
bin	692	6
bin	701	13
bin	710	10
bin	719	13
bin	728	12
bin	737	11
bin	746	22
bin	755	12
bin	764	15
bin	773	11
bin	782	12
bin	791	9
bin	800	15
bin	809	11
bin	818	11
bin	827	12
bin	836	9
bin	845	15
bin	854	12
bin	863	8
bin	872	17
bin	881	16
bin	890	13
bin	899	10
bin	908	14
bin	917	13
bin	926	10
bin	935	14
bin	944	10
bin	953	8
bin	962	13
bin	971	13
bin	980	16
bin	989	12
bin	998	9
bin	1007	9
bin	1016	9
bin	1025	0
bin	1034	0
bin	1043	0
bin	1052	0
bin	1061	0
bin	1070	0
bin	1079	0
bin	1088	0
bin	1097	0
bin	1106	0
bin	1115	0
bin	1124	0
bin	1133	0
bin	1142	0
bin	1151	0
bin	1160	0
bin	1169	0
bin	1178	0
bin	1187	0
bin	1196	0
bin	1205	0
bin	1214	0
bin	1223	0
bin	1232	0
bin	1241	0
bin	1250	0
bin	1259	0
bin	1268	0
bin	1277	0
bin	1286	0
bin	1295	0
bin	1304	0
bin	1313	0
bin	1322	0
bin	1331	0
bin	1340	0
bin	1349	0
bin	1358	0
bin	1367	0
bin	1376	0
bin	1385	0
bin	1394	0
bin	1403	0
bin	1412	0
bin	1421	0
bin	1430	0
bin	1439	0
bin	1448	0
bin	1457	0
bin	1466	0
scalar Net10.rte[0].queue[2] txBytes:count 303
attr interpolationmode none
attr title "transmitting packet byte length, count"
attr unit bytes
scalar Net10.rte[0].queue[2] txBytes:sum 173021
attr interpolationmode none
attr title "transmitting packet byte length, sum"
attr unit bytes
statistic Net10.rte[0].queue[2] txBytes:histogram
field count 303
field mean 571.02640264026
field stddev 256.46919821241
field min 133
field max 1023
field sum 173021
field sqrsum 118664047
attr interpolationmode none
attr title "transmitting packet byte length, histogram"
attr unit bytes
bin	-inf	0
bin	-298	0
bin	-289	0
bin	-280	0
bin	-271	0
bin	-262	0
bin	-253	0
bin	-244	0
bin	-235	0
bin	-226	0
bin	-217	0
bin	-208	0
bin	-199	0
bin	-190	0
bin	-181	0
bin	-172	0
bin	-163	0
bin	-154	0
bin	-145	0
bin	-136	0
bin	-127	0
bin	-118	0
bin	-109	0
bin	-100	0
bin	-91	0
bin	-82	0
bin	-73	0
bin	-64	0
bin	-55	0
bin	-46	0
bin	-37	0
bin	-28	0
bin	-19	0
bin	-10	0
bin	-1	0
bin	8	0
bin	17	0
bin	26	0
bin	35	0
bin	44	0
bin	53	0
bin	62	0
bin	71	0
bin	80	0
bin	89	0
bin	98	0
bin	107	0
bin	116	0
bin	125	1
bin	134	1
bin	143	8
bin	152	5
bin	161	3
bin	170	3
bin	179	5
bin	188	6
bin	197	2
bin	206	1
bin	215	3
bin	224	1
bin	233	5
bin	242	1
bin	251	0
bin	260	2
bin	269	1
bin	278	7
bin	287	2
bin	296	4
bin	305	5
bin	314	3
bin	323	3
bin	332	1
bin	341	0
bin	350	1
bin	359	2
bin	368	4
bin	377	4
bin	386	1
bin	395	2
bin	404	2
bin	413	5
bin	422	3
bin	431	0
bin	440	3
bin	449	7
bin	458	3
bin	467	7
bin	476	3
bin	485	7
bin	494	3
bin	503	3
bin	512	2
bin	521	1
bin	530	5
bin	539	5
bin	548	3
bin	557	2
bin	566	6
bin	575	1
bin	584	3
bin	593	1
bin	602	3
bin	611	2
bin	620	1
bin	629	1
bin	638	5
bin	647	4
bin	656	3
bin	665	6
bin	674	4
bin	683	3
bin	692	4
bin	701	6
bin	710	2
bin	719	2
bin	728	3
bin	737	0
bin	746	2
bin	755	3
bin	764	4
bin	773	3
bin	782	5
bin	791	4
bin	800	3
bin	809	0
bin	818	1
bin	827	3
bin	836	5
bin	845	6
bin	854	6
bin	863	0
bin	872	3
bin	881	2
bin	890	5
bin	899	2
bin	908	4
bin	917	3
bin	926	3
bin	935	4
bin	944	2
bin	953	2
bin	962	2
bin	971	3
bin	980	1
bin	989	1
bin	998	4
bin	1007	5
bin	1016	1
bin	1025	0
bin	1034	0
bin	1043	0
bin	1052	0
bin	1061	0
bin	1070	0
bin	1079	0
bin	1088	0
bin	1097	0
bin	1106	0
bin	1115	0
bin	1124	0
bin	1133	0
bin	1142	0
bin	1151	0
bin	1160	0
bin	1169	0
bin	1178	0
bin	1187	0
bin	1196	0
bin	1205	0
bin	1214	0
bin	1223	0
bin	1232	0
bin	1241	0
bin	1250	0
bin	1259	0
bin	1268	0
bin	1277	0
bin	1286	0
bin	1295	0
bin	1304	0
bin	1313	0
bin	1322	0
bin	1331	0
bin	1340	0
bin	1349	0
bin	1358	0
bin	1367	0
bin	1376	0
bin	1385	0
bin	1394	0
bin	1403	0
bin	1412	0
bin	1421	0
bin	1430	0
bin	1439	0
bin	1448	0
bin	1457	0
bin	1466	0
scalar Net10.rte[0].queue[2] busy:timeavg 0.0015137676876687
attr interpolationmode sample-hold
attr title "server busy state, timeavg"
scalar Net10.rte[0].queue[2] qlen:timeavg 0
attr interpolationmode sample-hold
attr title "queue length, timeavg"
scalar Net10.rte[0].queue[2] qlen:max 0
attr interpolationmode sample-hold
attr title "queue length, max"
scalar Net10.rte[0].queue[2] drop:count 0
attr interpolationmode none
attr title "dropped packet byte length, count"
attr unit bytes
scalar Net10.rte[0].queue[2] drop:sum 0
attr interpolationmode none
attr title "dropped packet byte length, sum"
attr unit bytes
scalar Net10.rte[1].app hopCount:mean 2.0085780270538
attr interpolationmode none
attr title "hop count of arrived packets, mean"
scalar Net10.rte[1].app hopCount:max 4
attr interpolationmode none
attr title "hop count of arrived packets, max"
scalar Net10.rte[1].app endToEndDelay:mean 0.010617520527453
attr interpolationmode none
attr title "end-to-end delay of arrived packets, mean"
attr unit s
scalar Net10.rte[1].app endToEndDelay:max 0.035353369198
attr interpolationmode none
attr title "end-to-end delay of arrived packets, max"
attr unit s
statistic Net10.rte[1].routing outputIf:histogram
field count 3574
field mean -0.54420817011752
field stddev 1.0770115370132
field min -1
field max 2
field sum -1945
field sqrsum 5203
attr interpolationmode none
attr title "output interface for each routed packet, histogram"
bin	-inf	0
bin	-3	0
bin	-2	0
bin	-1	3031
bin	0	0
bin	1	0
bin	2	543
bin	3	0
bin	4	0
scalar Net10.rte[1].routing drop:count 0
attr interpolationmode none
attr title "dropped packet byte length, count"
attr unit bytes
scalar Net10.rte[1].routing drop:sum 0
attr interpolationmode none
attr title "dropped packet byte length, sum"
attr unit bytes
scalar Net10.rte[1].queue[0] rxBytes:count 1514
attr interpolationmode none
attr title "received packet byte length, count"
attr unit bytes
scalar Net10.rte[1].queue[0] rxBytes:sum 862877
attr interpolationmode none
attr title "received packet byte length, sum"
attr unit bytes
statistic Net10.rte[1].queue[0] rxBytes:histogram
field count 1514
field mean 569.9319682959
field stddev 259.05334295506
field min 128
field max 1022
field sum 862877
field sqrsum 593316551
attr interpolationmode none
attr title "received packet byte length, histogram"
attr unit bytes
bin	-inf	0
bin	-307	0
bin	-298	0
bin	-289	0
bin	-280	0
bin	-271	0
bin	-262	0
bin	-253	0
bin	-244	0
bin	-235	0
bin	-226	0
bin	-217	0
bin	-208	0
bin	-199	0
bin	-190	0
bin	-181	0
bin	-172	0
bin	-163	0
bin	-154	0
bin	-145	0
bin	-136	0
bin	-127	0
bin	-118	0
bin	-109	0
bin	-100	0
bin	-91	0
bin	-82	0
bin	-73	0
bin	-64	0
bin	-55	0
bin	-46	0
bin	-37	0
bin	-28	0
bin	-19	0
bin	-10	0
bin	-1	0
bin	8	0
bin	17	0
bin	26	0
bin	35	0
bin	44	0
bin	53	0
bin	62	0
bin	71	0
bin	80	0
bin	89	0
bin	98	0
bin	107	0
bin	116	0
bin	125	9
bin	134	13
bin	143	17
bin	152	18
bin	161	19
bin	170	17
bin	179	20
bin	188	12
bin	197	15
bin	206	20
bin	215	12
bin	224	18
bin	233	12
bin	242	14
bin	251	12
bin	260	15
bin	269	16
bin	278	16
bin	287	10
bin	296	13
bin	305	26
bin	314	13
bin	323	13
bin	332	14
bin	341	23
bin	350	12
bin	359	14
bin	368	18
bin	377	9
bin	386	17
bin	395	18
bin	404	15
bin	413	20
bin	422	15
bin	431	13
bin	440	17
bin	449	15
bin	458	13
bin	467	16
bin	476	18
bin	485	25
bin	494	11
bin	503	19
bin	512	15
bin	521	23
bin	530	22
bin	539	11
bin	548	20
bin	557	6
bin	566	15
bin	575	14
bin	584	11
bin	593	10
bin	602	3
bin	611	18
bin	620	21
bin	629	18
bin	638	8
bin	647	13
bin	656	12
bin	665	16
bin	674	15
bin	683	16
bin	692	8
bin	701	17
bin	710	13
bin	719	15
bin	728	15
bin	737	13
bin	746	26
bin	755	15
bin	764	17
bin	773	14
bin	782	16
bin	791	11
bin	800	21
bin	809	17
bin	818	15
bin	827	14
bin	836	11
bin	845	18
bin	854	13
bin	863	10
bin	872	19
bin	881	20
bin	890	14
bin	899	13
bin	908	16
bin	917	16
bin	926	15
bin	935	21
bin	944	12
bin	953	10
bin	962	16
bin	971	14
bin	980	21
bin	989	14
bin	998	14
bin	1007	11
bin	1016	10
bin	1025	0
bin	1034	0
bin	1043	0
bin	1052	0
bin	1061	0
bin	1070	0
bin	1079	0
bin	1088	0
bin	1097	0
bin	1106	0
bin	1115	0
bin	1124	0
bin	1133	0
bin	1142	0
bin	1151	0
bin	1160	0
bin	1169	0
bin	1178	0
bin	1187	0
bin	1196	0
bin	1205	0
bin	1214	0
bin	1223	0
bin	1232	0
bin	1241	0
bin	1250	0
bin	1259	0
bin	1268	0
bin	1277	0
bin	1286	0
bin	1295	0
bin	1304	0
bin	1313	0
bin	1322	0
bin	1331	0
bin	1340	0
bin	1349	0
bin	1358	0
bin	1367	0
bin	1376	0
bin	1385	0
bin	1394	0
bin	1403	0
bin	1412	0
bin	1421	0
bin	1430	0
bin	1439	0
bin	1448	0
bin	1457	0
bin	1466	0
scalar Net10.rte[1].queue[0] txBytes:count 0
attr interpolationmode none
attr title "transmitting packet byte length, count"
attr unit bytes
scalar Net10.rte[1].queue[0] txBytes:sum 0
attr interpolationmode none
attr title "transmitting packet byte length, sum"
attr unit bytes
statistic Net10.rte[1].queue[0] txBytes:histogram
field count 0
field mean nan
field stddev nan
field min nan
field max nan
field sum 0
field sqrsum 0
attr interpolationmode none
attr title "transmitting packet byte length, histogram"
attr unit bytes
bin	-inf	0
bin	-0.5	0
bin	-0.46666666666667	0
bin	-0.43333333333333	0
bin	-0.4	0
bin	-0.36666666666667	0
bin	-0.33333333333333	0
bin	-0.3	0
bin	-0.26666666666667	0
bin	-0.23333333333333	0
bin	-0.2	0
bin	-0.16666666666667	0
bin	-0.13333333333333	0
bin	-0.1	0
bin	-0.066666666666667	0
bin	-0.033333333333333	0
bin	0	0
bin	0.033333333333333	0
bin	0.066666666666667	0
bin	0.1	0
bin	0.13333333333333	0
bin	0.16666666666667	0
bin	0.2	0
bin	0.23333333333333	0
bin	0.26666666666667	0
bin	0.3	0
bin	0.33333333333333	0
bin	0.36666666666667	0
bin	0.4	0
bin	0.43333333333333	0
bin	0.46666666666667	0
bin	0.5	0
scalar Net10.rte[1].queue[0] busy:timeavg 0
attr interpolationmode sample-hold
attr title "server busy state, timeavg"
scalar Net10.rte[1].queue[0] qlen:timeavg 0
attr interpolationmode sample-hold
attr title "queue length, timeavg"
scalar Net10.rte[1].queue[0] qlen:max 0
attr interpolationmode sample-hold
attr title "queue length, max"
scalar Net10.rte[1].queue[0] drop:count 0
attr interpolationmode none
attr title "dropped packet byte length, count"
attr unit bytes
scalar Net10.rte[1].queue[0] drop:sum 0
attr interpolationmode none
attr title "dropped packet byte length, sum"
attr unit bytes
scalar Net10.rte[1].queue[1] rxBytes:count 306
attr interpolationmode none
attr title "received packet byte length, count"
attr unit bytes
scalar Net10.rte[1].queue[1] rxBytes:sum 184833
attr interpolationmode none
attr title "received packet byte length, sum"
attr unit bytes
statistic Net10.rte[1].queue[1] rxBytes:histogram
field count 306
field mean 604.02941176471
field stddev 255.58410591757
field min 130
field max 1018
field sum 184833
field sqrsum 131568155
attr interpolationmode none
attr title "received packet byte length, histogram"
attr unit bytes
bin	-inf	0
bin	-284	0
bin	-275	0
bin	-266	0
bin	-257	0
bin	-248	0
bin	-239	0
bin	-230	0
bin	-221	0
bin	-212	0
bin	-203	0
bin	-194	0
bin	-185	0
bin	-176	0
bin	-167	0
bin	-158	0
bin	-149	0
bin	-140	0
bin	-131	0
bin	-122	0
bin	-113	0
bin	-104	0
bin	-95	0
bin	-86	0
bin	-77	0
bin	-68	0
bin	-59	0
bin	-50	0
bin	-41	0
bin	-32	0
bin	-23	0
bin	-14	0
bin	-5	0
bin	4	0
bin	13	0
bin	22	0
bin	31	0
bin	40	0
bin	49	0
bin	58	0
bin	67	0
bin	76	0
bin	85	0
bin	94	0
bin	103	0
bin	112	0
bin	121	0
bin	130	4
bin	139	1
bin	148	5
bin	157	5
bin	166	0
bin	175	3
bin	184	4
bin	193	2
bin	202	3
bin	211	2
bin	220	1
bin	229	3
bin	238	1
bin	247	2
bin	256	4
bin	265	1
bin	274	3
bin	283	6
bin	292	2
bin	301	3
bin	310	3
bin	319	1
bin	328	2
bin	337	3
bin	346	1
bin	355	1
bin	364	5
bin	373	4
bin	382	4
bin	391	2
bin	400	1
bin	409	2
bin	418	3
bin	427	4
bin	436	5
bin	445	1
bin	454	2
bin	463	3
bin	472	1
bin	481	2
bin	490	6
bin	499	3
bin	508	3
bin	517	2
bin	526	3
bin	535	2
bin	544	4
bin	553	6
bin	562	2
bin	571	1
bin	580	4
bin	589	1
bin	598	3
bin	607	2
bin	616	6
bin	625	1
bin	634	2
bin	643	2
bin	652	4
bin	661	3
bin	670	4
bin	679	4
bin	688	5
bin	697	3
bin	706	2
bin	715	6
bin	724	2
bin	733	3
bin	742	6
bin	751	7
bin	760	3
bin	769	0
bin	778	1
bin	787	2
bin	796	1
bin	805	0
bin	814	4
bin	823	7
bin	832	5
bin	841	8
bin	850	4
bin	859	6
bin	868	5
bin	877	3
bin	886	4
bin	895	5
bin	904	5
bin	913	2
bin	922	8
bin	931	4
bin	940	2
bin	949	1
bin	958	2
bin	967	2
bin	976	3
bin	985	4
bin	994	6
bin	1003	1
bin	1012	1
bin	1021	0
bin	1030	0
bin	1039	0
bin	1048	0
bin	1057	0
bin	1066	0
bin	1075	0
bin	1084	0
bin	1093	0
bin	1102	0
bin	1111	0
bin	1120	0
bin	1129	0
bin	1138	0
bin	1147	0
bin	1156	0
bin	1165	0
bin	1174	0
bin	1183	0
bin	1192	0
bin	1201	0
bin	1210	0
bin	1219	0
bin	1228	0
bin	1237	0
bin	1246	0
bin	1255	0
bin	1264	0
bin	1273	0
bin	1282	0
bin	1291	0
bin	1300	0
bin	1309	0
bin	1318	0
bin	1327	0
bin	1336	0
bin	1345	0
bin	1354	0
bin	1363	0
bin	1372	0
bin	1381	0
bin	1390	0
bin	1399	0
bin	1408	0
bin	1417	0
bin	1426	0
bin	1435	0
bin	1444	0
bin	1453	0
scalar Net10.rte[1].queue[1] txBytes:count 0
attr interpolationmode none
attr title "transmitting packet byte length, count"
attr unit bytes
scalar Net10.rte[1].queue[1] txBytes:sum 0
attr interpolationmode none
attr title "transmitting packet byte length, sum"
attr unit bytes
statistic Net10.rte[1].queue[1] txBytes:histogram
field count 0
field mean nan
field stddev nan
field min nan
field max nan
field sum 0
field sqrsum 0
attr interpolationmode none
attr title "transmitting packet byte length, histogram"
attr unit bytes
bin	-inf	0
bin	-0.5	0
bin	-0.46666666666667	0
bin	-0.43333333333333	0
bin	-0.4	0
bin	-0.36666666666667	0
bin	-0.33333333333333	0
bin	-0.3	0
bin	-0.26666666666667	0
bin	-0.23333333333333	0
bin	-0.2	0
bin	-0.16666666666667	0
bin	-0.13333333333333	0
bin	-0.1	0
bin	-0.066666666666667	0
bin	-0.033333333333333	0
bin	0	0
bin	0.033333333333333	0
bin	0.066666666666667	0
bin	0.1	0
bin	0.13333333333333	0
bin	0.16666666666667	0
bin	0.2	0
bin	0.23333333333333	0
bin	0.26666666666667	0
bin	0.3	0
bin	0.33333333333333	0
bin	0.36666666666667	0
bin	0.4	0
bin	0.43333333333333	0
bin	0.46666666666667	0
bin	0.5	0
scalar Net10.rte[1].queue[1] busy:timeavg 0
attr interpolationmode sample-hold
attr title "server busy state, timeavg"
scalar Net10.rte[1].queue[1] qlen:timeavg 0
attr interpolationmode sample-hold
attr title "queue length, timeavg"
scalar Net10.rte[1].queue[1] qlen:max 0
attr interpolationmode sample-hold
attr title "queue length, max"
scalar Net10.rte[1].queue[1] drop:count 0
attr interpolationmode none
attr title "dropped packet byte length, count"
attr unit bytes
scalar Net10.rte[1].queue[1] drop:sum 0
attr interpolationmode none
attr title "dropped packet byte length, sum"
attr unit bytes
scalar Net10.rte[1].queue[2] rxBytes:count 897
attr interpolationmode none
attr title "received packet byte length, count"
attr unit bytes
scalar Net10.rte[1].queue[2] rxBytes:sum 519802
attr interpolationmode none
attr title "received packet byte length, sum"
attr unit bytes
statistic Net10.rte[1].queue[2] rxBytes:histogram
field count 897
field mean 579.48940914158
field stddev 265.88456676779
field min 128
field max 1022
field sum 519802
field sqrsum 364562118
attr interpolationmode none
attr title "received packet byte length, histogram"
attr unit bytes
bin	-inf	0
bin	-311	0
bin	-302	0
bin	-293	0
bin	-284	0
bin	-275	0
bin	-266	0
bin	-257	0
bin	-248	0
bin	-239	0
bin	-230	0
bin	-221	0
bin	-212	0
bin	-203	0
bin	-194	0
bin	-185	0
bin	-176	0
bin	-167	0
bin	-158	0
bin	-149	0
bin	-140	0
bin	-131	0
bin	-122	0
bin	-113	0
bin	-104	0
bin	-95	0
bin	-86	0
bin	-77	0
bin	-68	0
bin	-59	0
bin	-50	0
bin	-41	0
bin	-32	0
bin	-23	0
bin	-14	0
bin	-5	0
bin	4	0
bin	13	0
bin	22	0
bin	31	0
bin	40	0
bin	49	0
bin	58	0
bin	67	0
bin	76	0
bin	85	0
bin	94	0
bin	103	0
bin	112	0
bin	121	4
bin	130	11
bin	139	9
bin	148	9
bin	157	11
bin	166	7
bin	175	8
bin	184	10
bin	193	6
bin	202	10
bin	211	14
bin	220	13
bin	229	9
bin	238	3
bin	247	11
bin	256	12
bin	265	9
bin	274	16
bin	283	8
bin	292	3
bin	301	11
bin	310	6
bin	319	8
bin	328	6
bin	337	6
bin	346	9
bin	355	10
bin	364	6
bin	373	8
bin	382	6
bin	391	8
bin	400	16
bin	409	8
bin	418	14
bin	427	13
bin	436	11
bin	445	13
bin	454	9
bin	463	8
bin	472	11
bin	481	8
bin	490	8
bin	499	4
bin	508	4
bin	517	5
bin	526	8
bin	535	8
bin	544	8
bin	553	3
bin	562	7
bin	571	7
bin	580	5
bin	589	13
bin	598	13
bin	607	6
bin	616	6
bin	625	8
bin	634	11
bin	643	7
bin	652	6
bin	661	11
bin	670	9
bin	679	4
bin	688	8
bin	697	12
bin	706	11
bin	715	8
bin	724	13
bin	733	5
bin	742	7
bin	751	6
bin	760	9
bin	769	6
bin	778	11
bin	787	8
bin	796	10
bin	805	11
bin	814	9
bin	823	12
bin	832	8
bin	841	12
bin	850	12
bin	859	9
bin	868	8
bin	877	17
bin	886	11
bin	895	10
bin	904	12
bin	913	9
bin	922	5
bin	931	11
bin	940	11
bin	949	9
bin	958	7
bin	967	11
bin	976	10
bin	985	8
bin	994	9
bin	1003	12
bin	1012	9
bin	1021	2
bin	1030	0
bin	1039	0
bin	1048	0
bin	1057	0
bin	1066	0
bin	1075	0
bin	1084	0
bin	1093	0
bin	1102	0
bin	1111	0
bin	1120	0
bin	1129	0
bin	1138	0
bin	1147	0
bin	1156	0
bin	1165	0
bin	1174	0
bin	1183	0
bin	1192	0
bin	1201	0
bin	1210	0
bin	1219	0
bin	1228	0
bin	1237	0
bin	1246	0
bin	1255	0
bin	1264	0
bin	1273	0
bin	1282	0
bin	1291	0
bin	1300	0
bin	1309	0
bin	1318	0
bin	1327	0
bin	1336	0
bin	1345	0
bin	1354	0
bin	1363	0
bin	1372	0
bin	1381	0
bin	1390	0
bin	1399	0
bin	1408	0
bin	1417	0
bin	1426	0
bin	1435	0
bin	1444	0
bin	1453	0
bin	1462	0
scalar Net10.rte[1].queue[2] txBytes:count 543
attr interpolationmode none
attr title "transmitting packet byte length, count"
attr unit bytes
scalar Net10.rte[1].queue[2] txBytes:sum 323821
attr interpolationmode none
attr title "transmitting packet byte length, sum"
attr unit bytes
statistic Net10.rte[1].queue[2] txBytes:histogram
field count 543
field mean 596.35543278085
field stddev 255.54142796215
field min 129
field max 1023
field sum 323821
field sqrsum 228505783
attr interpolationmode none
attr title "transmitting packet byte length, histogram"
attr unit bytes
bin	-inf	0
bin	-317	0
bin	-308	0
bin	-299	0
bin	-290	0
bin	-281	0
bin	-272	0
bin	-263	0
bin	-254	0
bin	-245	0
bin	-236	0
bin	-227	0
bin	-218	0
bin	-209	0
bin	-200	0
bin	-191	0
bin	-182	0
bin	-173	0
bin	-164	0
bin	-155	0
bin	-146	0
bin	-137	0
bin	-128	0
bin	-119	0
bin	-110	0
bin	-101	0
bin	-92	0
bin	-83	0
bin	-74	0
bin	-65	0
bin	-56	0
bin	-47	0
bin	-38	0
bin	-29	0
bin	-20	0
bin	-11	0
bin	-2	0
bin	7	0
bin	16	0
bin	25	0
bin	34	0
bin	43	0
bin	52	0
bin	61	0
bin	70	0
bin	79	0
bin	88	0
bin	97	0
bin	106	0
bin	115	0
bin	124	2
bin	133	4
bin	142	2
bin	151	4
bin	160	6
bin	169	4
bin	178	4
bin	187	2
bin	196	7
bin	205	6
bin	214	8
bin	223	5
bin	232	6
bin	241	10
bin	250	5
bin	259	3
bin	268	8
bin	277	5
bin	286	7
bin	295	2
bin	304	2
bin	313	3
bin	322	0
bin	331	4
bin	340	6
bin	349	6
bin	358	6
bin	367	3
bin	376	5
bin	385	6
bin	394	6
bin	403	8
bin	412	3
bin	421	4
bin	430	3
bin	439	4
bin	448	3
bin	457	2
bin	466	4
bin	475	5
bin	484	7
bin	493	7
bin	502	8
bin	511	7
bin	520	3
bin	529	8
bin	538	6
bin	547	3
bin	556	8
bin	565	10
bin	574	11
bin	583	6
bin	592	7
bin	601	6
bin	610	4
bin	619	6
bin	628	10
bin	637	3
bin	646	2
bin	655	10
bin	664	5
bin	673	8
bin	682	5
bin	691	3
bin	700	7
bin	709	5
bin	718	3
bin	727	9
bin	736	6
bin	745	4
bin	754	4
bin	763	10
bin	772	8
bin	781	7
bin	790	6
bin	799	12
bin	808	4
bin	817	6
bin	826	2
bin	835	2
bin	844	2
bin	853	1
bin	862	3
bin	871	7
bin	880	6
bin	889	2
bin	898	5
bin	907	4
bin	916	9
bin	925	7
bin	934	6
bin	943	4
bin	952	7
bin	961	3
bin	970	6
bin	979	9
bin	988	8
bin	997	8
bin	1006	9
bin	1015	6
bin	1024	0
bin	1033	0
bin	1042	0
bin	1051	0
bin	1060	0
bin	1069	0
bin	1078	0
bin	1087	0
bin	1096	0
bin	1105	0
bin	1114	0
bin	1123	0
bin	1132	0
bin	1141	0
bin	1150	0
bin	1159	0
bin	1168	0
bin	1177	0
bin	1186	0
bin	1195	0
bin	1204	0
bin	1213	0
bin	1222	0
bin	1231	0
bin	1240	0
bin	1249	0
bin	1258	0
bin	1267	0
bin	1276	0
bin	1285	0
bin	1294	0
bin	1303	0
bin	1312	0
bin	1321	0
bin	1330	0
bin	1339	0
bin	1348	0
bin	1357	0
bin	1366	0
bin	1375	0
bin	1384	0
bin	1393	0
bin	1402	0
bin	1411	0
bin	1420	0
bin	1429	0
bin	1438	0
bin	1447	0
bin	1456	0
bin	1465	0
scalar Net10.rte[1].queue[2] busy:timeavg 0.002833122952639
attr interpolationmode sample-hold
attr title "server busy state, timeavg"
scalar Net10.rte[1].queue[2] qlen:timeavg 1.0880592509511e-007
attr interpolationmode sample-hold
attr title "queue length, timeavg"
scalar Net10.rte[1].queue[2] qlen:max 1
attr interpolationmode sample-hold
attr title "queue length, max"
scalar Net10.rte[1].queue[2] drop:count 0
attr interpolationmode none
attr title "dropped packet byte length, count"
attr unit bytes
scalar Net10.rte[1].queue[2] drop:sum 0
attr interpolationmode none
attr title "dropped packet byte length, sum"
attr unit bytes
scalar Net10.rte[2].app hopCount:mean nan
attr interpolationmode none
attr title "hop count of arrived packets, mean"
scalar Net10.rte[2].app hopCount:max nan
attr interpolationmode none
attr title "hop count of arrived packets, max"
scalar Net10.rte[2].app endToEndDelay:mean nan
attr interpolationmode none
attr title "end-to-end delay of arrived packets, mean"
attr unit s
scalar Net10.rte[2].app endToEndDelay:max nan
attr interpolationmode none
attr title "end-to-end delay of arrived packets, max"
attr unit s
statistic Net10.rte[2].routing outputIf:histogram
field count 2336
field mean 3.3839897260274
field stddev 0.4864595758665
field min 3
field max 4
field sum 7905
field sqrsum 27303
attr interpolationmode none
attr title "output interface for each routed packet, histogram"
bin	-inf	0
bin	2	0
bin	3	1439
bin	4	897
bin	5	0
scalar Net10.rte[2].routing drop:count 0
attr interpolationmode none
attr title "dropped packet byte length, count"
attr unit bytes
scalar Net10.rte[2].routing drop:sum 0
attr interpolationmode none
attr title "dropped packet byte length, sum"
attr unit bytes
scalar Net10.rte[2].queue[0] rxBytes:count 303
attr interpolationmode none
attr title "received packet byte length, count"
attr unit bytes
scalar Net10.rte[2].queue[0] rxBytes:sum 177318
attr interpolationmode none
attr title "received packet byte length, sum"
attr unit bytes
statistic Net10.rte[2].queue[0] rxBytes:histogram
field count 303
field mean 585.20792079208
field stddev 253.79880635897
field min 128
field max 1016
field sum 177318
field sqrsum 123220876
attr interpolationmode none
attr title "received packet byte length, histogram"
attr unit bytes
bin	-inf	0
bin	-319	0
bin	-310	0
bin	-301	0
bin	-292	0
bin	-283	0
bin	-274	0
bin	-265	0
bin	-256	0
bin	-247	0
bin	-238	0
bin	-229	0
bin	-220	0
bin	-211	0
bin	-202	0
bin	-193	0
bin	-184	0
bin	-175	0
bin	-166	0
bin	-157	0
bin	-148	0
bin	-139	0
bin	-130	0
bin	-121	0
bin	-112	0
bin	-103	0
bin	-94	0
bin	-85	0
bin	-76	0
bin	-67	0
bin	-58	0
bin	-49	0
bin	-40	0
bin	-31	0
bin	-22	0
bin	-13	0
bin	-4	0
bin	5	0
bin	14	0
bin	23	0
bin	32	0
bin	41	0
bin	50	0
bin	59	0
bin	68	0
bin	77	0
bin	86	0
bin	95	0
bin	104	0
bin	113	0
bin	122	3
bin	131	5
bin	140	2
bin	149	2
bin	158	2
bin	167	5
bin	176	2
bin	185	2
bin	194	2
bin	203	6
bin	212	1
bin	221	7
bin	230	2
bin	239	2
bin	248	4
bin	257	1
bin	266	2
bin	275	3
bin	284	2
bin	293	0
bin	302	1
bin	311	1
bin	320	1
bin	329	4
bin	338	0
bin	347	3
bin	356	4
bin	365	0
bin	374	0
bin	383	1
bin	392	6
bin	401	8
bin	410	2
bin	419	2
bin	428	4
bin	437	3
bin	446	6
bin	455	3
bin	464	1
bin	473	0
bin	482	7
bin	491	1
bin	500	4
bin	509	3
bin	518	1
bin	527	3
bin	536	6
bin	545	6
bin	554	5
bin	563	3
bin	572	3
bin	581	4
bin	590	5
bin	599	1
bin	608	3
bin	617	6
bin	626	3
bin	635	5
bin	644	1
bin	653	0
bin	662	3
bin	671	6
bin	680	6
bin	689	1
bin	698	2
bin	707	6
bin	716	6
bin	725	5
bin	734	4
bin	743	0
bin	752	4
bin	761	0
bin	770	2
bin	779	3
bin	788	4
bin	797	4
bin	806	3
bin	815	4
bin	824	2
bin	833	2
bin	842	3
bin	851	4
bin	860	4
bin	869	4
bin	878	3
bin	887	3
bin	896	3
bin	905	0
bin	914	3
bin	923	4
bin	932	3
bin	941	2
bin	950	1
bin	959	4
bin	968	3
bin	977	2
bin	986	5
bin	995	2
bin	1004	4
bin	1013	4
bin	1022	0
bin	1031	0
bin	1040	0
bin	1049	0
bin	1058	0
bin	1067	0
bin	1076	0
bin	1085	0
bin	1094	0
bin	1103	0
bin	1112	0
bin	1121	0
bin	1130	0
bin	1139	0
bin	1148	0
bin	1157	0
bin	1166	0
bin	1175	0
bin	1184	0
bin	1193	0
bin	1202	0
bin	1211	0
bin	1220	0
bin	1229	0
bin	1238	0
bin	1247	0
bin	1256	0
bin	1265	0
bin	1274	0
bin	1283	0
bin	1292	0
bin	1301	0
bin	1310	0
bin	1319	0
bin	1328	0
bin	1337	0
bin	1346	0
bin	1355	0
bin	1364	0
bin	1373	0
bin	1382	0
bin	1391	0
bin	1400	0
bin	1409	0
bin	1418	0
bin	1427	0
bin	1436	0
bin	1445	0
bin	1454	0
bin	1463	0
scalar Net10.rte[2].queue[0] txBytes:count 0
attr interpolationmode none
attr title "transmitting packet byte length, count"
attr unit bytes
scalar Net10.rte[2].queue[0] txBytes:sum 0
attr interpolationmode none
attr title "transmitting packet byte length, sum"
attr unit bytes
statistic Net10.rte[2].queue[0] txBytes:histogram
field count 0
field mean nan
field stddev nan
field min nan
field max nan
field sum 0
field sqrsum 0
attr interpolationmode none
attr title "transmitting packet byte length, histogram"
attr unit bytes
bin	-inf	0
bin	-0.5	0
bin	-0.46666666666667	0
bin	-0.43333333333333	0
bin	-0.4	0
bin	-0.36666666666667	0
bin	-0.33333333333333	0
bin	-0.3	0
bin	-0.26666666666667	0
bin	-0.23333333333333	0
bin	-0.2	0
bin	-0.16666666666667	0
bin	-0.13333333333333	0
bin	-0.1	0
bin	-0.066666666666667	0
bin	-0.033333333333333	0
bin	0	0
bin	0.033333333333333	0
bin	0.066666666666667	0
bin	0.1	0
bin	0.13333333333333	0
bin	0.16666666666667	0
bin	0.2	0
bin	0.23333333333333	0
bin	0.26666666666667	0
bin	0.3	0
bin	0.33333333333333	0
bin	0.36666666666667	0
bin	0.4	0
bin	0.43333333333333	0
bin	0.46666666666667	0
bin	0.5	0
scalar Net10.rte[2].queue[0] busy:timeavg 0
attr interpolationmode sample-hold
attr title "server busy state, timeavg"
scalar Net10.rte[2].queue[0] qlen:timeavg 0
attr interpolationmode sample-hold
attr title "queue length, timeavg"
scalar Net10.rte[2].queue[0] qlen:max 0
attr interpolationmode sample-hold
attr title "queue length, max"
scalar Net10.rte[2].queue[0] drop:count 0
attr interpolationmode none
attr title "dropped packet byte length, count"
attr unit bytes
scalar Net10.rte[2].queue[0] drop:sum 0
attr interpolationmode none
attr title "dropped packet byte length, sum"
attr unit bytes
scalar Net10.rte[2].queue[1] rxBytes:count 0
attr interpolationmode none
attr title "received packet byte length, count"
attr unit bytes
scalar Net10.rte[2].queue[1] rxBytes:sum 0
attr interpolationmode none
attr title "received packet byte length, sum"
attr unit bytes
statistic Net10.rte[2].queue[1] rxBytes:histogram
field count 0
field mean nan
field stddev nan
field min nan
field max nan
field sum 0
field sqrsum 0
attr interpolationmode none
attr title "received packet byte length, histogram"
attr unit bytes
bin	-inf	0
bin	-0.5	0
bin	-0.46666666666667	0
bin	-0.43333333333333	0
bin	-0.4	0
bin	-0.36666666666667	0
bin	-0.33333333333333	0
bin	-0.3	0
bin	-0.26666666666667	0
bin	-0.23333333333333	0
bin	-0.2	0
bin	-0.16666666666667	0
bin	-0.13333333333333	0
bin	-0.1	0
bin	-0.066666666666667	0
bin	-0.033333333333333	0
bin	0	0
bin	0.033333333333333	0
bin	0.066666666666667	0
bin	0.1	0
bin	0.13333333333333	0
bin	0.16666666666667	0
bin	0.2	0
bin	0.23333333333333	0
bin	0.26666666666667	0
bin	0.3	0
bin	0.33333333333333	0
bin	0.36666666666667	0
bin	0.4	0
bin	0.43333333333333	0
bin	0.46666666666667	0
bin	0.5	0
scalar Net10.rte[2].queue[1] txBytes:count 0
attr interpolationmode none
attr title "transmitting packet byte length, count"
attr unit bytes
scalar Net10.rte[2].queue[1] txBytes:sum 0
attr interpolationmode none
attr title "transmitting packet byte length, sum"
attr unit bytes
statistic Net10.rte[2].queue[1] txBytes:histogram
field count 0
field mean nan
field stddev nan
field min nan
field max nan
field sum 0
field sqrsum 0
attr interpolationmode none
attr title "transmitting packet byte length, histogram"
attr unit bytes
bin	-inf	0
bin	-0.5	0
bin	-0.46666666666667	0
bin	-0.43333333333333	0
bin	-0.4	0
bin	-0.36666666666667	0
bin	-0.33333333333333	0
bin	-0.3	0
bin	-0.26666666666667	0
bin	-0.23333333333333	0
bin	-0.2	0
bin	-0.16666666666667	0
bin	-0.13333333333333	0
bin	-0.1	0
bin	-0.066666666666667	0
bin	-0.033333333333333	0
bin	0	0
bin	0.033333333333333	0
bin	0.066666666666667	0
bin	0.1	0
bin	0.13333333333333	0
bin	0.16666666666667	0
bin	0.2	0
bin	0.23333333333333	0
bin	0.26666666666667	0
bin	0.3	0
bin	0.33333333333333	0
bin	0.36666666666667	0
bin	0.4	0
bin	0.43333333333333	0
bin	0.46666666666667	0
bin	0.5	0
scalar Net10.rte[2].queue[1] busy:timeavg 0
attr interpolationmode sample-hold
attr title "server busy state, timeavg"
scalar Net10.rte[2].queue[1] qlen:timeavg 0
attr interpolationmode sample-hold
attr title "queue length, timeavg"
scalar Net10.rte[2].queue[1] qlen:max 0
attr interpolationmode sample-hold
attr title "queue length, max"
scalar Net10.rte[2].queue[1] drop:count 0
attr interpolationmode none
attr title "dropped packet byte length, count"
attr unit bytes
scalar Net10.rte[2].queue[1] drop:sum 0
attr interpolationmode none
attr title "dropped packet byte length, sum"
attr unit bytes
scalar Net10.rte[2].queue[2] rxBytes:count 0
attr interpolationmode none
attr title "received packet byte length, count"
attr unit bytes
scalar Net10.rte[2].queue[2] rxBytes:sum 0
attr interpolationmode none
attr title "received packet byte length, sum"
attr unit bytes
statistic Net10.rte[2].queue[2] rxBytes:histogram
field count 0
field mean nan
field stddev nan
field min nan
field max nan
field sum 0
field sqrsum 0
attr interpolationmode none
attr title "received packet byte length, histogram"
attr unit bytes
bin	-inf	0
bin	-0.5	0
bin	-0.46666666666667	0
bin	-0.43333333333333	0
bin	-0.4	0
bin	-0.36666666666667	0
bin	-0.33333333333333	0
bin	-0.3	0
bin	-0.26666666666667	0
bin	-0.23333333333333	0
bin	-0.2	0
bin	-0.16666666666667	0
bin	-0.13333333333333	0
bin	-0.1	0
bin	-0.066666666666667	0
bin	-0.033333333333333	0
bin	0	0
bin	0.033333333333333	0
bin	0.066666666666667	0
bin	0.1	0
bin	0.13333333333333	0
bin	0.16666666666667	0
bin	0.2	0
bin	0.23333333333333	0
bin	0.26666666666667	0
bin	0.3	0
bin	0.33333333333333	0
bin	0.36666666666667	0
bin	0.4	0
bin	0.43333333333333	0
bin	0.46666666666667	0
bin	0.5	0
scalar Net10.rte[2].queue[2] txBytes:count 0
attr interpolationmode none
attr title "transmitting packet byte length, count"
attr unit bytes
scalar Net10.rte[2].queue[2] txBytes:sum 0
attr interpolationmode none
attr title "transmitting packet byte length, sum"
attr unit bytes
statistic Net10.rte[2].queue[2] txBytes:histogram
field count 0
field mean nan
field stddev nan
field min nan
field max nan
field sum 0
field sqrsum 0
attr interpolationmode none
attr title "transmitting packet byte length, histogram"
attr unit bytes
bin	-inf	0
bin	-0.5	0
bin	-0.46666666666667	0
bin	-0.43333333333333	0
bin	-0.4	0
bin	-0.36666666666667	0
bin	-0.33333333333333	0
bin	-0.3	0
bin	-0.26666666666667	0
bin	-0.23333333333333	0
bin	-0.2	0
bin	-0.16666666666667	0
bin	-0.13333333333333	0
bin	-0.1	0
bin	-0.066666666666667	0
bin	-0.033333333333333	0
bin	0	0
bin	0.033333333333333	0
bin	0.066666666666667	0
bin	0.1	0
bin	0.13333333333333	0
bin	0.16666666666667	0
bin	0.2	0
bin	0.23333333333333	0
bin	0.26666666666667	0
bin	0.3	0
bin	0.33333333333333	0
bin	0.36666666666667	0
bin	0.4	0
bin	0.43333333333333	0
bin	0.46666666666667	0
bin	0.5	0
scalar Net10.rte[2].queue[2] busy:timeavg 0
attr interpolationmode sample-hold
attr title "server busy state, timeavg"
scalar Net10.rte[2].queue[2] qlen:timeavg 0
attr interpolationmode sample-hold
attr title "queue length, timeavg"
scalar Net10.rte[2].queue[2] qlen:max 0
attr interpolationmode sample-hold
attr title "queue length, max"
scalar Net10.rte[2].queue[2] drop:count 0
attr interpolationmode none
attr title "dropped packet byte length, count"
attr unit bytes
scalar Net10.rte[2].queue[2] drop:sum 0
attr interpolationmode none
attr title "dropped packet byte length, sum"
attr unit bytes
scalar Net10.rte[2].queue[3] rxBytes:count 595
attr interpolationmode none
attr title "received packet byte length, count"
attr unit bytes
scalar Net10.rte[2].queue[3] rxBytes:sum 342673
attr interpolationmode none
attr title "received packet byte length, sum"
attr unit bytes
statistic Net10.rte[2].queue[3] rxBytes:histogram
field count 595
field mean 575.92100840336
field stddev 264.27076235816
field min 128
field max 1022
field sum 342673
field sqrsum 238836967
attr interpolationmode none
attr title "received packet byte length, histogram"
attr unit bytes
bin	-inf	0
bin	-309	0
bin	-300	0
bin	-291	0
bin	-282	0
bin	-273	0
bin	-264	0
bin	-255	0
bin	-246	0
bin	-237	0
bin	-228	0
bin	-219	0
bin	-210	0
bin	-201	0
bin	-192	0
bin	-183	0
bin	-174	0
bin	-165	0
bin	-156	0
bin	-147	0
bin	-138	0
bin	-129	0
bin	-120	0
bin	-111	0
bin	-102	0
bin	-93	0
bin	-84	0
bin	-75	0
bin	-66	0
bin	-57	0
bin	-48	0
bin	-39	0
bin	-30	0
bin	-21	0
bin	-12	0
bin	-3	0
bin	6	0
bin	15	0
bin	24	0
bin	33	0
bin	42	0
bin	51	0
bin	60	0
bin	69	0
bin	78	0
bin	87	0
bin	96	0
bin	105	0
bin	114	0
bin	123	4
bin	132	8
bin	141	3
bin	150	5
bin	159	11
bin	168	7
bin	177	4
bin	186	6
bin	195	6
bin	204	8
bin	213	10
bin	222	7
bin	231	4
bin	240	3
bin	249	10
bin	258	6
bin	267	6
bin	276	7
bin	285	4
bin	294	2
bin	303	9
bin	312	2
bin	321	6
bin	330	4
bin	339	4
bin	348	7
bin	357	5
bin	366	4
bin	375	4
bin	384	4
bin	393	9
bin	402	11
bin	411	9
bin	420	6
bin	429	7
bin	438	10
bin	447	5
bin	456	7
bin	465	5
bin	474	9
bin	483	5
bin	492	6
bin	501	2
bin	510	3
bin	519	2
bin	528	9
bin	537	2
bin	546	5
bin	555	3
bin	564	3
bin	573	6
bin	582	4
bin	591	9
bin	600	10
bin	609	3
bin	618	6
bin	627	8
bin	636	7
bin	645	5
bin	654	5
bin	663	7
bin	672	5
bin	681	7
bin	690	2
bin	699	11
bin	708	5
bin	717	7
bin	726	6
bin	735	5
bin	744	3
bin	753	2
bin	762	7
bin	771	7
bin	780	3
bin	789	6
bin	798	7
bin	807	5
bin	816	5
bin	825	8
bin	834	7
bin	843	9
bin	852	3
bin	861	6
bin	870	4
bin	879	12
bin	888	7
bin	897	7
bin	906	6
bin	915	7
bin	924	8
bin	933	5
bin	942	8
bin	951	7
bin	960	4
bin	969	6
bin	978	6
bin	987	5
bin	996	7
bin	1005	6
bin	1014	6
bin	1023	0
bin	1032	0
bin	1041	0
bin	1050	0
bin	1059	0
bin	1068	0
bin	1077	0
bin	1086	0
bin	1095	0
bin	1104	0
bin	1113	0
bin	1122	0
bin	1131	0
bin	1140	0
bin	1149	0
bin	1158	0
bin	1167	0
bin	1176	0
bin	1185	0
bin	1194	0
bin	1203	0
bin	1212	0
bin	1221	0
bin	1230	0
bin	1239	0
bin	1248	0
bin	1257	0
bin	1266	0
bin	1275	0
bin	1284	0
bin	1293	0
bin	1302	0
bin	1311	0
bin	1320	0
bin	1329	0
bin	1338	0
bin	1347	0
bin	1356	0
bin	1365	0
bin	1374	0
bin	1383	0
bin	1392	0
bin	1401	0
bin	1410	0
bin	1419	0
bin	1428	0
bin	1437	0
bin	1446	0
bin	1455	0
scalar Net10.rte[2].queue[3] txBytes:count 1439
attr interpolationmode none
attr title "transmitting packet byte length, count"
attr unit bytes
scalar Net10.rte[2].queue[3] txBytes:sum 847543
attr interpolationmode none
attr title "transmitting packet byte length, sum"
attr unit bytes
statistic Net10.rte[2].queue[3] txBytes:histogram
field count 1439
field mean 588.98054204309
field stddev 257.00403369328
field min 128
field max 1023
field sum 847543
field sqrsum 594167779
attr interpolationmode none
attr title "transmitting packet byte length, histogram"
attr unit bytes
bin	-inf	0
bin	-318	0
bin	-309	0
bin	-300	0
bin	-291	0
bin	-282	0
bin	-273	0
bin	-264	0
bin	-255	0
bin	-246	0
bin	-237	0
bin	-228	0
bin	-219	0
bin	-210	0
bin	-201	0
bin	-192	0
bin	-183	0
bin	-174	0
bin	-165	0
bin	-156	0
bin	-147	0
bin	-138	0
bin	-129	0
bin	-120	0
bin	-111	0
bin	-102	0
bin	-93	0
bin	-84	0
bin	-75	0
bin	-66	0
bin	-57	0
bin	-48	0
bin	-39	0
bin	-30	0
bin	-21	0
bin	-12	0
bin	-3	0
bin	6	0
bin	15	0
bin	24	0
bin	33	0
bin	42	0
bin	51	0
bin	60	0
bin	69	0
bin	78	0
bin	87	0
bin	96	0
bin	105	0
bin	114	0
bin	123	9
bin	132	14
bin	141	12
bin	150	14
bin	159	19
bin	168	10
bin	177	11
bin	186	12
bin	195	12
bin	204	15
bin	213	12
bin	222	17
bin	231	13
bin	240	17
bin	249	16
bin	258	11
bin	267	21
bin	276	11
bin	285	10
bin	294	5
bin	303	9
bin	312	9
bin	321	9
bin	330	11
bin	339	11
bin	348	21
bin	357	10
bin	366	6
bin	375	14
bin	384	13
bin	393	19
bin	402	19
bin	411	14
bin	420	11
bin	429	9
bin	438	13
bin	447	21
bin	456	7
bin	465	12
bin	474	15
bin	483	20
bin	492	14
bin	501	23
bin	510	16
bin	519	17
bin	528	12
bin	537	15
bin	546	19
bin	555	16
bin	564	19
bin	573	16
bin	582	15
bin	591	22
bin	600	15
bin	609	18
bin	618	16
bin	627	14
bin	636	14
bin	645	11
bin	654	16
bin	663	17
bin	672	19
bin	681	12
bin	690	8
bin	699	13
bin	708	16
bin	717	15
bin	726	22
bin	735	19
bin	744	13
bin	753	12
bin	762	16
bin	771	16
bin	780	20
bin	789	13
bin	798	12
bin	807	14
bin	816	14
bin	825	10
bin	834	9
bin	843	16
bin	852	11
bin	861	13
bin	870	19
bin	879	14
bin	888	16
bin	897	9
bin	906	9
bin	915	18
bin	924	15
bin	933	15
bin	942	12
bin	951	23
bin	960	10
bin	969	15
bin	978	19
bin	987	20
bin	996	14
bin	1005	18
bin	1014	20
bin	1023	1
bin	1032	0
bin	1041	0
bin	1050	0
bin	1059	0
bin	1068	0
bin	1077	0
bin	1086	0
bin	1095	0
bin	1104	0
bin	1113	0
bin	1122	0
bin	1131	0
bin	1140	0
bin	1149	0
bin	1158	0
bin	1167	0
bin	1176	0
bin	1185	0
bin	1194	0
bin	1203	0
bin	1212	0
bin	1221	0
bin	1230	0
bin	1239	0
bin	1248	0
bin	1257	0
bin	1266	0
bin	1275	0
bin	1284	0
bin	1293	0
bin	1302	0
bin	1311	0
bin	1320	0
bin	1329	0
bin	1338	0
bin	1347	0
bin	1356	0
bin	1365	0
bin	1374	0
bin	1383	0
bin	1392	0
bin	1401	0
bin	1410	0
bin	1419	0
bin	1428	0
bin	1437	0
bin	1446	0
bin	1455	0
bin	1464	0
scalar Net10.rte[2].queue[3] busy:timeavg 0.0074151877940237
attr interpolationmode sample-hold
attr title "server busy state, timeavg"
scalar Net10.rte[2].queue[3] qlen:timeavg 3.2913009714471e-005
attr interpolationmode sample-hold
attr title "queue length, timeavg"
scalar Net10.rte[2].queue[3] qlen:max 1
attr interpolationmode sample-hold
attr title "queue length, max"
scalar Net10.rte[2].queue[3] drop:count 0
attr interpolationmode none
attr title "dropped packet byte length, count"
attr unit bytes
scalar Net10.rte[2].queue[3] drop:sum 0
attr interpolationmode none
attr title "dropped packet byte length, sum"
attr unit bytes
scalar Net10.rte[2].queue[4] rxBytes:count 543
attr interpolationmode none
attr title "received packet byte length, count"
attr unit bytes
scalar Net10.rte[2].queue[4] rxBytes:sum 323821
attr interpolationmode none
attr title "received packet byte length, sum"
attr unit bytes
statistic Net10.rte[2].queue[4] rxBytes:histogram
field count 543
field mean 596.35543278085
field stddev 255.54142796215
field min 129
field max 1023
field sum 323821
field sqrsum 228505783
attr interpolationmode none
attr title "received packet byte length, histogram"
attr unit bytes
bin	-inf	0
bin	-317	0
bin	-308	0
bin	-299	0
bin	-290	0
bin	-281	0
bin	-272	0
bin	-263	0
bin	-254	0
bin	-245	0
bin	-236	0
bin	-227	0
bin	-218	0
bin	-209	0
bin	-200	0
bin	-191	0
bin	-182	0
bin	-173	0
bin	-164	0
bin	-155	0
bin	-146	0
bin	-137	0
bin	-128	0
bin	-119	0
bin	-110	0
bin	-101	0
bin	-92	0
bin	-83	0
bin	-74	0
bin	-65	0
bin	-56	0
bin	-47	0
bin	-38	0
bin	-29	0
bin	-20	0
bin	-11	0
bin	-2	0
bin	7	0
bin	16	0
bin	25	0
bin	34	0
bin	43	0
bin	52	0
bin	61	0
bin	70	0
bin	79	0
bin	88	0
bin	97	0
bin	106	0
bin	115	0
bin	124	2
bin	133	4
bin	142	2
bin	151	4
bin	160	6
bin	169	4
bin	178	4
bin	187	2
bin	196	7
bin	205	6
bin	214	8
bin	223	5
bin	232	6
bin	241	10
bin	250	5
bin	259	3
bin	268	8
bin	277	5
bin	286	7
bin	295	2
bin	304	2
bin	313	3
bin	322	0
bin	331	4
bin	340	6
bin	349	6
bin	358	6
bin	367	3
bin	376	5
bin	385	6
bin	394	6
bin	403	8
bin	412	3
bin	421	4
bin	430	3
bin	439	4
bin	448	3
bin	457	2
bin	466	4
bin	475	5
bin	484	7
bin	493	7
bin	502	8
bin	511	7
bin	520	3
bin	529	8
bin	538	6
bin	547	3
bin	556	8
bin	565	10
bin	574	11
bin	583	6
bin	592	7
bin	601	6
bin	610	4
bin	619	6
bin	628	10
bin	637	3
bin	646	2
bin	655	10
bin	664	5
bin	673	8
bin	682	5
bin	691	3
bin	700	7
bin	709	5
bin	718	3
bin	727	9
bin	736	6
bin	745	4
bin	754	4
bin	763	10
bin	772	8
bin	781	7
bin	790	6
bin	799	12
bin	808	4
bin	817	6
bin	826	2
bin	835	2
bin	844	2
bin	853	1
bin	862	3
bin	871	7
bin	880	6
bin	889	2
bin	898	5
bin	907	4
bin	916	9
bin	925	7
bin	934	6
bin	943	4
bin	952	7
bin	961	3
bin	970	6
bin	979	9
bin	988	8
bin	997	8
bin	1006	9
bin	1015	6
bin	1024	0
bin	1033	0
bin	1042	0
bin	1051	0
bin	1060	0
bin	1069	0
bin	1078	0
bin	1087	0
bin	1096	0
bin	1105	0
bin	1114	0
bin	1123	0
bin	1132	0
bin	1141	0
bin	1150	0
bin	1159	0
bin	1168	0
bin	1177	0
bin	1186	0
bin	1195	0
bin	1204	0
bin	1213	0
bin	1222	0
bin	1231	0
bin	1240	0
bin	1249	0
bin	1258	0
bin	1267	0
bin	1276	0
bin	1285	0
bin	1294	0
bin	1303	0
bin	1312	0
bin	1321	0
bin	1330	0
bin	1339	0
bin	1348	0
bin	1357	0
bin	1366	0
bin	1375	0
bin	1384	0
bin	1393	0
bin	1402	0
bin	1411	0
bin	1420	0
bin	1429	0
bin	1438	0
bin	1447	0
bin	1456	0
bin	1465	0
scalar Net10.rte[2].queue[4] txBytes:count 897
attr interpolationmode none
attr title "transmitting packet byte length, count"
attr unit bytes
scalar Net10.rte[2].queue[4] txBytes:sum 519802
attr interpolationmode none
attr title "transmitting packet byte length, sum"
attr unit bytes
statistic Net10.rte[2].queue[4] txBytes:histogram
field count 897
field mean 579.48940914158
field stddev 265.88456676779
field min 128
field max 1022
field sum 519802
field sqrsum 364562118
attr interpolationmode none
attr title "transmitting packet byte length, histogram"
attr unit bytes
bin	-inf	0
bin	-311	0
bin	-302	0
bin	-293	0
bin	-284	0
bin	-275	0
bin	-266	0
bin	-257	0
bin	-248	0
bin	-239	0
bin	-230	0
bin	-221	0
bin	-212	0
bin	-203	0
bin	-194	0
bin	-185	0
bin	-176	0
bin	-167	0
bin	-158	0
bin	-149	0
bin	-140	0
bin	-131	0
bin	-122	0
bin	-113	0
bin	-104	0
bin	-95	0
bin	-86	0
bin	-77	0
bin	-68	0
bin	-59	0
bin	-50	0
bin	-41	0
bin	-32	0
bin	-23	0
bin	-14	0
bin	-5	0
bin	4	0
bin	13	0
bin	22	0
bin	31	0
bin	40	0
bin	49	0
bin	58	0
bin	67	0
bin	76	0
bin	85	0
bin	94	0
bin	103	0
bin	112	0
bin	121	4
bin	130	11
bin	139	9
bin	148	9
bin	157	11
bin	166	7
bin	175	8
bin	184	10
bin	193	6
bin	202	10
bin	211	14
bin	220	13
bin	229	9
bin	238	3
bin	247	11
bin	256	12
bin	265	9
bin	274	16
bin	283	8
bin	292	3
bin	301	11
bin	310	6
bin	319	8
bin	328	6
bin	337	6
bin	346	9
bin	355	10
bin	364	6
bin	373	8
bin	382	6
bin	391	8
bin	400	16
bin	409	8
bin	418	14
bin	427	13
bin	436	11
bin	445	13
bin	454	9
bin	463	8
bin	472	11
bin	481	8
bin	490	8
bin	499	4
bin	508	4
bin	517	5
bin	526	8
bin	535	8
bin	544	8
bin	553	3
bin	562	7
bin	571	7
bin	580	5
bin	589	13
bin	598	13
bin	607	6
bin	616	6
bin	625	8
bin	634	11
bin	643	7
bin	652	6
bin	661	11
bin	670	9
bin	679	4
bin	688	8
bin	697	12
bin	706	11
bin	715	8
bin	724	13
bin	733	5
bin	742	7
bin	751	6
bin	760	9
bin	769	6
bin	778	11
bin	787	8
bin	796	10
bin	805	11
bin	814	9
bin	823	12
bin	832	8
bin	841	12
bin	850	12
bin	859	9
bin	868	8
bin	877	17
bin	886	11
bin	895	10
bin	904	12
bin	913	9
bin	922	5
bin	931	11
bin	940	11
bin	949	9
bin	958	7
bin	967	11
bin	976	10
bin	985	8
bin	994	9
bin	1003	12
bin	1012	9
bin	1021	2
bin	1030	0
bin	1039	0
bin	1048	0
bin	1057	0
bin	1066	0
bin	1075	0
bin	1084	0
bin	1093	0
bin	1102	0
bin	1111	0
bin	1120	0
bin	1129	0
bin	1138	0
bin	1147	0
bin	1156	0
bin	1165	0
bin	1174	0
bin	1183	0
bin	1192	0
bin	1201	0
bin	1210	0
bin	1219	0
bin	1228	0
bin	1237	0
bin	1246	0
bin	1255	0
bin	1264	0
bin	1273	0
bin	1282	0
bin	1291	0
bin	1300	0
bin	1309	0
bin	1318	0
bin	1327	0
bin	1336	0
bin	1345	0
bin	1354	0
bin	1363	0
bin	1372	0
bin	1381	0
bin	1390	0
bin	1399	0
bin	1408	0
bin	1417	0
bin	1426	0
bin	1435	0
bin	1444	0
bin	1453	0
bin	1462	0
scalar Net10.rte[2].queue[4] busy:timeavg 0.0045477686037276
attr interpolationmode sample-hold
attr title "server busy state, timeavg"
scalar Net10.rte[2].queue[4] qlen:timeavg 2.2005550219179e-005
attr interpolationmode sample-hold
attr title "queue length, timeavg"
scalar Net10.rte[2].queue[4] qlen:max 1
attr interpolationmode sample-hold
attr title "queue length, max"
scalar Net10.rte[2].queue[4] drop:count 0
attr interpolationmode none
attr title "dropped packet byte length, count"
attr unit bytes
scalar Net10.rte[2].queue[4] drop:sum 0
attr interpolationmode none
attr title "dropped packet byte length, sum"
attr unit bytes
scalar Net10.rte[3].app hopCount:mean nan
attr interpolationmode none
attr title "hop count of arrived packets, mean"
scalar Net10.rte[3].app hopCount:max nan
attr interpolationmode none
attr title "hop count of arrived packets, max"
scalar Net10.rte[3].app endToEndDelay:mean nan
attr interpolationmode none
attr title "end-to-end delay of arrived packets, mean"
attr unit s
scalar Net10.rte[3].app endToEndDelay:max nan
attr interpolationmode none
attr title "end-to-end delay of arrived packets, max"
attr unit s
statistic Net10.rte[3].routing outputIf:histogram
field count 936
field mean 0.32692307692308
field stddev 0.46933966408106
field min 0
field max 1
field sum 306
field sqrsum 306
attr interpolationmode none
attr title "output interface for each routed packet, histogram"
bin	-inf	0
bin	-1	0
bin	0	630
bin	1	306
bin	2	0
scalar Net10.rte[3].routing drop:count 0
attr interpolationmode none
attr title "dropped packet byte length, count"
attr unit bytes
scalar Net10.rte[3].routing drop:sum 0
attr interpolationmode none
attr title "dropped packet byte length, sum"
attr unit bytes
scalar Net10.rte[3].queue[0] rxBytes:count 0
attr interpolationmode none
attr title "received packet byte length, count"
attr unit bytes
scalar Net10.rte[3].queue[0] rxBytes:sum 0
attr interpolationmode none
attr title "received packet byte length, sum"
attr unit bytes
statistic Net10.rte[3].queue[0] rxBytes:histogram
field count 0
field mean nan
field stddev nan
field min nan
field max nan
field sum 0
field sqrsum 0
attr interpolationmode none
attr title "received packet byte length, histogram"
attr unit bytes
bin	-inf	0
bin	-0.5	0
bin	-0.46666666666667	0
bin	-0.43333333333333	0
bin	-0.4	0
bin	-0.36666666666667	0
bin	-0.33333333333333	0
bin	-0.3	0
bin	-0.26666666666667	0
bin	-0.23333333333333	0
bin	-0.2	0
bin	-0.16666666666667	0
bin	-0.13333333333333	0
bin	-0.1	0
bin	-0.066666666666667	0
bin	-0.033333333333333	0
bin	0	0
bin	0.033333333333333	0
bin	0.066666666666667	0
bin	0.1	0
bin	0.13333333333333	0
bin	0.16666666666667	0
bin	0.2	0
bin	0.23333333333333	0
bin	0.26666666666667	0
bin	0.3	0
bin	0.33333333333333	0
bin	0.36666666666667	0
bin	0.4	0
bin	0.43333333333333	0
bin	0.46666666666667	0
bin	0.5	0
scalar Net10.rte[3].queue[0] txBytes:count 630
attr interpolationmode none
attr title "transmitting packet byte length, count"
attr unit bytes
scalar Net10.rte[3].queue[0] txBytes:sum 363368
attr interpolationmode none
attr title "transmitting packet byte length, sum"
attr unit bytes
statistic Net10.rte[3].queue[0] txBytes:histogram
field count 630
field mean 576.7746031746
field stddev 255.64111865648
field min 128
field max 1023
field sum 363368
field sqrsum 250688082
attr interpolationmode none
attr title "transmitting packet byte length, histogram"
attr unit bytes
bin	-inf	0
bin	-268	0
bin	-259	0
bin	-250	0
bin	-241	0
bin	-232	0
bin	-223	0
bin	-214	0
bin	-205	0
bin	-196	0
bin	-187	0
bin	-178	0
bin	-169	0
bin	-160	0
bin	-151	0
bin	-142	0
bin	-133	0
bin	-124	0
bin	-115	0
bin	-106	0
bin	-97	0
bin	-88	0
bin	-79	0
bin	-70	0
bin	-61	0
bin	-52	0
bin	-43	0
bin	-34	0
bin	-25	0
bin	-16	0
bin	-7	0
bin	2	0
bin	11	0
bin	20	0
bin	29	0
bin	38	0
bin	47	0
bin	56	0
bin	65	0
bin	74	0
bin	83	0
bin	92	0
bin	101	0
bin	110	0
bin	119	0
bin	128	4
bin	137	5
bin	146	9
bin	155	7
bin	164	8
bin	173	8
bin	182	5
bin	191	6
bin	200	4
bin	209	1
bin	218	3
bin	227	11
bin	236	5
bin	245	3
bin	254	10
bin	263	8
bin	272	8
bin	281	5
bin	290	10
bin	299	4
bin	308	5
bin	317	4
bin	326	3
bin	335	8
bin	344	10
bin	353	3
bin	362	5
bin	371	7
bin	380	10
bin	389	8
bin	398	4
bin	407	5
bin	416	2
bin	425	9
bin	434	6
bin	443	8
bin	452	5
bin	461	8
bin	470	4
bin	479	11
bin	488	4
bin	497	9
bin	506	7
bin	515	9
bin	524	8
bin	533	7
bin	542	8
bin	551	4
bin	560	10
bin	569	6
bin	578	4
bin	587	6
bin	596	3
bin	605	7
bin	614	6
bin	623	6
bin	632	6
bin	641	6
bin	650	6
bin	659	8
bin	668	8
bin	677	4
bin	686	8
bin	695	8
bin	704	9
bin	713	3
bin	722	8
bin	731	11
bin	740	5
bin	749	8
bin	758	2
bin	767	7
bin	776	7
bin	785	9
bin	794	7
bin	803	10
bin	812	5
bin	821	4
bin	830	8
bin	839	5
bin	848	4
bin	857	6
bin	866	1
bin	875	6
bin	884	9
bin	893	4
bin	902	7
bin	911	5
bin	920	12
bin	929	4
bin	938	4
bin	947	2
bin	956	4
bin	965	3
bin	974	8
bin	983	8
bin	992	7
bin	1001	6
bin	1010	7
bin	1019	8
bin	1028	0
bin	1037	0
bin	1046	0
bin	1055	0
bin	1064	0
bin	1073	0
bin	1082	0
bin	1091	0
bin	1100	0
bin	1109	0
bin	1118	0
bin	1127	0
bin	1136	0
bin	1145	0
bin	1154	0
bin	1163	0
bin	1172	0
bin	1181	0
bin	1190	0
bin	1199	0
bin	1208	0
bin	1217	0
bin	1226	0
bin	1235	0
bin	1244	0
bin	1253	0
bin	1262	0
bin	1271	0
bin	1280	0
bin	1289	0
bin	1298	0
bin	1307	0
bin	1316	0
bin	1325	0
bin	1334	0
bin	1343	0
bin	1352	0
bin	1361	0
bin	1370	0
bin	1379	0
bin	1388	0
bin	1397	0
bin	1406	0
scalar Net10.rte[3].queue[0] busy:timeavg 0.0031791212461655
attr interpolationmode sample-hold
attr title "server busy state, timeavg"
scalar Net10.rte[3].queue[0] qlen:timeavg 2.3658343990188e-005
attr interpolationmode sample-hold
attr title "queue length, timeavg"
scalar Net10.rte[3].queue[0] qlen:max 1
attr interpolationmode sample-hold
attr title "queue length, max"
scalar Net10.rte[3].queue[0] drop:count 0
attr interpolationmode none
attr title "dropped packet byte length, count"
attr unit bytes
scalar Net10.rte[3].queue[0] drop:sum 0
attr interpolationmode none
attr title "dropped packet byte length, sum"
attr unit bytes
scalar Net10.rte[3].queue[1] rxBytes:count 0
attr interpolationmode none
attr title "received packet byte length, count"
attr unit bytes
scalar Net10.rte[3].queue[1] rxBytes:sum 0
attr interpolationmode none
attr title "received packet byte length, sum"
attr unit bytes
statistic Net10.rte[3].queue[1] rxBytes:histogram
field count 0
field mean nan
field stddev nan
field min nan
field max nan
field sum 0
field sqrsum 0
attr interpolationmode none
attr title "received packet byte length, histogram"
attr unit bytes
bin	-inf	0
bin	-0.5	0
bin	-0.46666666666667	0
bin	-0.43333333333333	0
bin	-0.4	0
bin	-0.36666666666667	0
bin	-0.33333333333333	0
bin	-0.3	0
bin	-0.26666666666667	0
bin	-0.23333333333333	0
bin	-0.2	0
bin	-0.16666666666667	0
bin	-0.13333333333333	0
bin	-0.1	0
bin	-0.066666666666667	0
bin	-0.033333333333333	0
bin	0	0
bin	0.033333333333333	0
bin	0.066666666666667	0
bin	0.1	0
bin	0.13333333333333	0
bin	0.16666666666667	0
bin	0.2	0
bin	0.23333333333333	0
bin	0.26666666666667	0
bin	0.3	0
bin	0.33333333333333	0
bin	0.36666666666667	0
bin	0.4	0
bin	0.43333333333333	0
bin	0.46666666666667	0
bin	0.5	0
scalar Net10.rte[3].queue[1] txBytes:count 306
attr interpolationmode none
attr title "transmitting packet byte length, count"
attr unit bytes
scalar Net10.rte[3].queue[1] txBytes:sum 184833
attr interpolationmode none
attr title "transmitting packet byte length, sum"
attr unit bytes
statistic Net10.rte[3].queue[1] txBytes:histogram
field count 306
field mean 604.02941176471
field stddev 255.58410591757
field min 130
field max 1018
field sum 184833
field sqrsum 131568155
attr interpolationmode none
attr title "transmitting packet byte length, histogram"
attr unit bytes
bin	-inf	0
bin	-284	0
bin	-275	0
bin	-266	0
bin	-257	0
bin	-248	0
bin	-239	0
bin	-230	0
bin	-221	0
bin	-212	0
bin	-203	0
bin	-194	0
bin	-185	0
bin	-176	0
bin	-167	0
bin	-158	0
bin	-149	0
bin	-140	0
bin	-131	0
bin	-122	0
bin	-113	0
bin	-104	0
bin	-95	0
bin	-86	0
bin	-77	0
bin	-68	0
bin	-59	0
bin	-50	0
bin	-41	0
bin	-32	0
bin	-23	0
bin	-14	0
bin	-5	0
bin	4	0
bin	13	0
bin	22	0
bin	31	0
bin	40	0
bin	49	0
bin	58	0
bin	67	0
bin	76	0
bin	85	0
bin	94	0
bin	103	0
bin	112	0
bin	121	0
bin	130	4
bin	139	1
bin	148	5
bin	157	5
bin	166	0
bin	175	3
bin	184	4
bin	193	2
bin	202	3
bin	211	2
bin	220	1
bin	229	3
bin	238	1
bin	247	2
bin	256	4
bin	265	1
bin	274	3
bin	283	6
bin	292	2
bin	301	3
bin	310	3
bin	319	1
bin	328	2
bin	337	3
bin	346	1
bin	355	1
bin	364	5
bin	373	4
bin	382	4
bin	391	2
bin	400	1
bin	409	2
bin	418	3
bin	427	4
bin	436	5
bin	445	1
bin	454	2
bin	463	3
bin	472	1
bin	481	2
bin	490	6
bin	499	3
bin	508	3
bin	517	2
bin	526	3
bin	535	2
bin	544	4
bin	553	6
bin	562	2
bin	571	1
bin	580	4
bin	589	1
bin	598	3
bin	607	2
bin	616	6
bin	625	1
bin	634	2
bin	643	2
bin	652	4
bin	661	3
bin	670	4
bin	679	4
bin	688	5
bin	697	3
bin	706	2
bin	715	6
bin	724	2
bin	733	3
bin	742	6
bin	751	7
bin	760	3
bin	769	0
bin	778	1
bin	787	2
bin	796	1
bin	805	0
bin	814	4
bin	823	7
bin	832	5
bin	841	8
bin	850	4
bin	859	6
bin	868	5
bin	877	3
bin	886	4
bin	895	5
bin	904	5
bin	913	2
bin	922	8
bin	931	4
bin	940	2
bin	949	1
bin	958	2
bin	967	2
bin	976	3
bin	985	4
bin	994	6
bin	1003	1
bin	1012	1
bin	1021	0
bin	1030	0
bin	1039	0
bin	1048	0
bin	1057	0
bin	1066	0
bin	1075	0
bin	1084	0
bin	1093	0
bin	1102	0
bin	1111	0
bin	1120	0
bin	1129	0
bin	1138	0
bin	1147	0
bin	1156	0
bin	1165	0
bin	1174	0
bin	1183	0
bin	1192	0
bin	1201	0
bin	1210	0
bin	1219	0
bin	1228	0
bin	1237	0
bin	1246	0
bin	1255	0
bin	1264	0
bin	1273	0
bin	1282	0
bin	1291	0
bin	1300	0
bin	1309	0
bin	1318	0
bin	1327	0
bin	1336	0
bin	1345	0
bin	1354	0
bin	1363	0
bin	1372	0
bin	1381	0
bin	1390	0
bin	1399	0
bin	1408	0
bin	1417	0
bin	1426	0
bin	1435	0
bin	1444	0
bin	1453	0
scalar Net10.rte[3].queue[1] busy:timeavg 0.0016171113507312
attr interpolationmode sample-hold
attr title "server busy state, timeavg"
scalar Net10.rte[3].queue[1] qlen:timeavg 2.4644509833201e-006
attr interpolationmode sample-hold
attr title "queue length, timeavg"
scalar Net10.rte[3].queue[1] qlen:max 1
attr interpolationmode sample-hold
attr title "queue length, max"
scalar Net10.rte[3].queue[1] drop:count 0
attr interpolationmode none
attr title "dropped packet byte length, count"
attr unit bytes
scalar Net10.rte[3].queue[1] drop:sum 0
attr interpolationmode none
attr title "dropped packet byte length, sum"
attr unit bytes
scalar Net10.rte[3].queue[2] rxBytes:count 0
attr interpolationmode none
attr title "received packet byte length, count"
attr unit bytes
scalar Net10.rte[3].queue[2] rxBytes:sum 0
attr interpolationmode none
attr title "received packet byte length, sum"
attr unit bytes
statistic Net10.rte[3].queue[2] rxBytes:histogram
field count 0
field mean nan
field stddev nan
field min nan
field max nan
field sum 0
field sqrsum 0
attr interpolationmode none
attr title "received packet byte length, histogram"
attr unit bytes
bin	-inf	0
bin	-0.5	0
bin	-0.46666666666667	0
bin	-0.43333333333333	0
bin	-0.4	0
bin	-0.36666666666667	0
bin	-0.33333333333333	0
bin	-0.3	0
bin	-0.26666666666667	0
bin	-0.23333333333333	0
bin	-0.2	0
bin	-0.16666666666667	0
bin	-0.13333333333333	0
bin	-0.1	0
bin	-0.066666666666667	0
bin	-0.033333333333333	0
bin	0	0
bin	0.033333333333333	0
bin	0.066666666666667	0
bin	0.1	0
bin	0.13333333333333	0
bin	0.16666666666667	0
bin	0.2	0
bin	0.23333333333333	0
bin	0.26666666666667	0
bin	0.3	0
bin	0.33333333333333	0
bin	0.36666666666667	0
bin	0.4	0
bin	0.43333333333333	0
bin	0.46666666666667	0
bin	0.5	0
scalar Net10.rte[3].queue[2] txBytes:count 0
attr interpolationmode none
attr title "transmitting packet byte length, count"
attr unit bytes
scalar Net10.rte[3].queue[2] txBytes:sum 0
attr interpolationmode none
attr title "transmitting packet byte length, sum"
attr unit bytes
statistic Net10.rte[3].queue[2] txBytes:histogram
field count 0
field mean nan
field stddev nan
field min nan
field max nan
field sum 0
field sqrsum 0
attr interpolationmode none
attr title "transmitting packet byte length, histogram"
attr unit bytes
bin	-inf	0
bin	-0.5	0
bin	-0.46666666666667	0
bin	-0.43333333333333	0
bin	-0.4	0
bin	-0.36666666666667	0
bin	-0.33333333333333	0
bin	-0.3	0
bin	-0.26666666666667	0
bin	-0.23333333333333	0
bin	-0.2	0
bin	-0.16666666666667	0
bin	-0.13333333333333	0
bin	-0.1	0
bin	-0.066666666666667	0
bin	-0.033333333333333	0
bin	0	0
bin	0.033333333333333	0
bin	0.066666666666667	0
bin	0.1	0
bin	0.13333333333333	0
bin	0.16666666666667	0
bin	0.2	0
bin	0.23333333333333	0
bin	0.26666666666667	0
bin	0.3	0
bin	0.33333333333333	0
bin	0.36666666666667	0
bin	0.4	0
bin	0.43333333333333	0
bin	0.46666666666667	0
bin	0.5	0
scalar Net10.rte[3].queue[2] busy:timeavg 0
attr interpolationmode sample-hold
attr title "server busy state, timeavg"
scalar Net10.rte[3].queue[2] qlen:timeavg 0
attr interpolationmode sample-hold
attr title "queue length, timeavg"
scalar Net10.rte[3].queue[2] qlen:max 0
attr interpolationmode sample-hold
attr title "queue length, max"
scalar Net10.rte[3].queue[2] drop:count 0
attr interpolationmode none
attr title "dropped packet byte length, count"
attr unit bytes
scalar Net10.rte[3].queue[2] drop:sum 0
attr interpolationmode none
attr title "dropped packet byte length, sum"
attr unit bytes
scalar Net10.rte[4].app hopCount:mean nan
attr interpolationmode none
attr title "hop count of arrived packets, mean"
scalar Net10.rte[4].app hopCount:max nan
attr interpolationmode none
attr title "hop count of arrived packets, max"
scalar Net10.rte[4].app endToEndDelay:mean nan
attr interpolationmode none
attr title "end-to-end delay of arrived packets, mean"
attr unit s
scalar Net10.rte[4].app endToEndDelay:max nan
attr interpolationmode none
attr title "end-to-end delay of arrived packets, max"
attr unit s
statistic Net10.rte[4].routing outputIf:histogram
field count 3317
field mean 1.4332227916792
field stddev 1.3738092605254
field min 0
field max 3
field sum 4754
field sqrsum 13072
attr interpolationmode none
attr title "output interface for each routed packet, histogram"
bin	-inf	0
bin	-2	0
bin	-1	0
bin	0	1534
bin	1	0
bin	2	595
bin	3	1188
bin	4	0
bin	5	0
scalar Net10.rte[4].routing drop:count 0
attr interpolationmode none
attr title "dropped packet byte length, count"
attr unit bytes
scalar Net10.rte[4].routing drop:sum 0
attr interpolationmode none
attr title "dropped packet byte length, sum"
attr unit bytes
scalar Net10.rte[4].queue[0] rxBytes:count 303
attr interpolationmode none
attr title "received packet byte length, count"
attr unit bytes
scalar Net10.rte[4].queue[0] rxBytes:sum 169834
attr interpolationmode none
attr title "received packet byte length, sum"
attr unit bytes
statistic Net10.rte[4].queue[0] rxBytes:histogram
field count 303
field mean 560.50825082508
field stddev 261.71378462769
field min 129
field max 1022
field sum 169834
field sqrsum 115878578
attr interpolationmode none
attr title "received packet byte length, histogram"
attr unit bytes
bin	-inf	0
bin	-305	0
bin	-296	0
bin	-287	0
bin	-278	0
bin	-269	0
bin	-260	0
bin	-251	0
bin	-242	0
bin	-233	0
bin	-224	0
bin	-215	0
bin	-206	0
bin	-197	0
bin	-188	0
bin	-179	0
bin	-170	0
bin	-161	0
bin	-152	0
bin	-143	0
bin	-134	0
bin	-125	0
bin	-116	0
bin	-107	0
bin	-98	0
bin	-89	0
bin	-80	0
bin	-71	0
bin	-62	0
bin	-53	0
bin	-44	0
bin	-35	0
bin	-26	0
bin	-17	0
bin	-8	0
bin	1	0
bin	10	0
bin	19	0
bin	28	0
bin	37	0
bin	46	0
bin	55	0
bin	64	0
bin	73	0
bin	82	0
bin	91	0
bin	100	0
bin	109	0
bin	118	0
bin	127	2
bin	136	5
bin	145	3
bin	154	6
bin	163	6
bin	172	3
bin	181	2
bin	190	2
bin	199	2
bin	208	3
bin	217	6
bin	226	3
bin	235	1
bin	244	4
bin	253	4
bin	262	4
bin	271	5
bin	280	1
bin	289	1
bin	298	2
bin	307	4
bin	316	2
bin	325	3
bin	334	1
bin	343	4
bin	352	6
bin	361	5
bin	370	0
bin	379	3
bin	388	5
bin	397	6
bin	406	5
bin	415	1
bin	424	3
bin	433	4
bin	442	4
bin	451	2
bin	460	2
bin	469	3
bin	478	5
bin	487	3
bin	496	3
bin	505	2
bin	514	1
bin	523	2
bin	532	2
bin	541	2
bin	550	2
bin	559	1
bin	568	2
bin	577	3
bin	586	2
bin	595	3
bin	604	6
bin	613	3
bin	622	3
bin	631	6
bin	640	2
bin	649	2
bin	658	1
bin	667	7
bin	676	1
bin	685	4
bin	694	2
bin	703	5
bin	712	5
bin	721	2
bin	730	1
bin	739	3
bin	748	1
bin	757	1
bin	766	5
bin	775	3
bin	784	2
bin	793	4
bin	802	3
bin	811	5
bin	820	1
bin	829	5
bin	838	4
bin	847	3
bin	856	3
bin	865	2
bin	874	5
bin	883	0
bin	892	3
bin	901	4
bin	910	4
bin	919	1
bin	928	4
bin	937	4
bin	946	5
bin	955	2
bin	964	3
bin	973	1
bin	982	2
bin	991	3
bin	1000	2
bin	1009	2
bin	1018	2
bin	1027	0
bin	1036	0
bin	1045	0
bin	1054	0
bin	1063	0
bin	1072	0
bin	1081	0
bin	1090	0
bin	1099	0
bin	1108	0
bin	1117	0
bin	1126	0
bin	1135	0
bin	1144	0
bin	1153	0
bin	1162	0
bin	1171	0
bin	1180	0
bin	1189	0
bin	1198	0
bin	1207	0
bin	1216	0
bin	1225	0
bin	1234	0
bin	1243	0
bin	1252	0
bin	1261	0
bin	1270	0
bin	1279	0
bin	1288	0
bin	1297	0
bin	1306	0
bin	1315	0
bin	1324	0
bin	1333	0
bin	1342	0
bin	1351	0
bin	1360	0
bin	1369	0
bin	1378	0
bin	1387	0
bin	1396	0
bin	1405	0
bin	1414	0
bin	1423	0
bin	1432	0
bin	1441	0
bin	1450	0
scalar Net10.rte[4].queue[0] txBytes:count 1534
attr interpolationmode none
attr title "transmitting packet byte length, count"
attr unit bytes
scalar Net10.rte[4].queue[0] txBytes:sum 883233
attr interpolationmode none
attr title "transmitting packet byte length, sum"
attr unit bytes
statistic Net10.rte[4].queue[0] txBytes:histogram
field count 1534
field mean 575.77118644068
field stddev 255.56909965971
field min 128
field max 1023
field sum 883233
field sqrsum 608668873
attr interpolationmode none
attr title "transmitting packet byte length, histogram"
attr unit bytes
bin	-inf	0
bin	-306	0
bin	-297	0
bin	-288	0
bin	-279	0
bin	-270	0
bin	-261	0
bin	-252	0
bin	-243	0
bin	-234	0
bin	-225	0
bin	-216	0
bin	-207	0
bin	-198	0
bin	-189	0
bin	-180	0
bin	-171	0
bin	-162	0
bin	-153	0
bin	-144	0
bin	-135	0
bin	-126	0
bin	-117	0
bin	-108	0
bin	-99	0
bin	-90	0
bin	-81	0
bin	-72	0
bin	-63	0
bin	-54	0
bin	-45	0
bin	-36	0
bin	-27	0
bin	-18	0
bin	-9	0
bin	0	0
bin	9	0
bin	18	0
bin	27	0
bin	36	0
bin	45	0
bin	54	0
bin	63	0
bin	72	0
bin	81	0
bin	90	0
bin	99	0
bin	108	0
bin	117	0
bin	126	14
bin	135	15
bin	144	14
bin	153	17
bin	162	16
bin	171	17
bin	180	8
bin	189	22
bin	198	10
bin	207	15
bin	216	14
bin	225	18
bin	234	19
bin	243	13
bin	252	17
bin	261	14
bin	270	20
bin	279	13
bin	288	16
bin	297	6
bin	306	18
bin	315	9
bin	324	8
bin	333	15
bin	342	22
bin	351	8
bin	360	14
bin	369	9
bin	378	11
bin	387	17
bin	396	16
bin	405	20
bin	414	11
bin	423	12
bin	432	11
bin	441	19
bin	450	17
bin	459	19
bin	468	13
bin	477	24
bin	486	19
bin	495	12
bin	504	15
bin	513	21
bin	522	24
bin	531	15
bin	540	22
bin	549	15
bin	558	23
bin	567	20
bin	576	15
bin	585	22
bin	594	10
bin	603	16
bin	612	24
bin	621	19
bin	630	10
bin	639	15
bin	648	17
bin	657	16
bin	666	13
bin	675	13
bin	684	19
bin	693	12
bin	702	20
bin	711	12
bin	720	20
bin	729	18
bin	738	18
bin	747	20
bin	756	17
bin	765	13
bin	774	12
bin	783	13
bin	792	10
bin	801	14
bin	810	15
bin	819	12
bin	828	12
bin	837	16
bin	846	12
bin	855	15
bin	864	11
bin	873	14
bin	882	14
bin	891	15
bin	900	15
bin	909	16
bin	918	18
bin	927	15
bin	936	11
bin	945	13
bin	954	13
bin	963	7
bin	972	17
bin	981	15
bin	990	18
bin	999	18
bin	1008	28
bin	1017	9
bin	1026	0
bin	1035	0
bin	1044	0
bin	1053	0
bin	1062	0
bin	1071	0
bin	1080	0
bin	1089	0
bin	1098	0
bin	1107	0
bin	1116	0
bin	1125	0
bin	1134	0
bin	1143	0
bin	1152	0
bin	1161	0
bin	1170	0
bin	1179	0
bin	1188	0
bin	1197	0
bin	1206	0
bin	1215	0
bin	1224	0
bin	1233	0
bin	1242	0
bin	1251	0
bin	1260	0
bin	1269	0
bin	1278	0
bin	1287	0
bin	1296	0
bin	1305	0
bin	1314	0
bin	1323	0
bin	1332	0
bin	1341	0
bin	1350	0
bin	1359	0
bin	1368	0
bin	1377	0
bin	1386	0
bin	1395	0
bin	1404	0
bin	1413	0
bin	1422	0
bin	1431	0
bin	1440	0
bin	1449	0
bin	1458	0
scalar Net10.rte[4].queue[0] busy:timeavg 0.0077274410394269
attr interpolationmode sample-hold
attr title "server busy state, timeavg"
scalar Net10.rte[4].queue[0] qlen:timeavg 2.5299829528289e-005
attr interpolationmode sample-hold
attr title "queue length, timeavg"
scalar Net10.rte[4].queue[0] qlen:max 1
attr interpolationmode sample-hold
attr title "queue length, max"
scalar Net10.rte[4].queue[0] drop:count 0
attr interpolationmode none
attr title "dropped packet byte length, count"
attr unit bytes
scalar Net10.rte[4].queue[0] drop:sum 0
attr interpolationmode none
attr title "dropped packet byte length, sum"
attr unit bytes
scalar Net10.rte[4].queue[1] rxBytes:count 630
attr interpolationmode none
attr title "received packet byte length, count"
attr unit bytes
scalar Net10.rte[4].queue[1] rxBytes:sum 363368
attr interpolationmode none
attr title "received packet byte length, sum"
attr unit bytes
statistic Net10.rte[4].queue[1] rxBytes:histogram
field count 630
field mean 576.7746031746
field stddev 255.64111865648
field min 128
field max 1023
field sum 363368
field sqrsum 250688082
attr interpolationmode none
attr title "received packet byte length, histogram"
attr unit bytes
bin	-inf	0
bin	-268	0
bin	-259	0
bin	-250	0
bin	-241	0
bin	-232	0
bin	-223	0
bin	-214	0
bin	-205	0
bin	-196	0
bin	-187	0
bin	-178	0
bin	-169	0
bin	-160	0
bin	-151	0
bin	-142	0
bin	-133	0
bin	-124	0
bin	-115	0
bin	-106	0
bin	-97	0
bin	-88	0
bin	-79	0
bin	-70	0
bin	-61	0
bin	-52	0
bin	-43	0
bin	-34	0
bin	-25	0
bin	-16	0
bin	-7	0
bin	2	0
bin	11	0
bin	20	0
bin	29	0
bin	38	0
bin	47	0
bin	56	0
bin	65	0
bin	74	0
bin	83	0
bin	92	0
bin	101	0
bin	110	0
bin	119	0
bin	128	4
bin	137	5
bin	146	9
bin	155	7
bin	164	8
bin	173	8
bin	182	5
bin	191	6
bin	200	4
bin	209	1
bin	218	3
bin	227	11
bin	236	5
bin	245	3
bin	254	10
bin	263	8
bin	272	8
bin	281	5
bin	290	10
bin	299	4
bin	308	5
bin	317	4
bin	326	3
bin	335	8
bin	344	10
bin	353	3
bin	362	5
bin	371	7
bin	380	10
bin	389	8
bin	398	4
bin	407	5
bin	416	2
bin	425	9
bin	434	6
bin	443	8
bin	452	5
bin	461	8
bin	470	4
bin	479	11
bin	488	4
bin	497	9
bin	506	7
bin	515	9
bin	524	8
bin	533	7
bin	542	8
bin	551	4
bin	560	10
bin	569	6
bin	578	4
bin	587	6
bin	596	3
bin	605	7
bin	614	6
bin	623	6
bin	632	6
bin	641	6
bin	650	6
bin	659	8
bin	668	8
bin	677	4
bin	686	8
bin	695	8
bin	704	9
bin	713	3
bin	722	8
bin	731	11
bin	740	5
bin	749	8
bin	758	2
bin	767	7
bin	776	7
bin	785	9
bin	794	7
bin	803	10
bin	812	5
bin	821	4
bin	830	8
bin	839	5
bin	848	4
bin	857	6
bin	866	1
bin	875	6
bin	884	9
bin	893	4
bin	902	7
bin	911	5
bin	920	12
bin	929	4
bin	938	4
bin	947	2
bin	956	4
bin	965	3
bin	974	8
bin	983	8
bin	992	7
bin	1001	6
bin	1010	7
bin	1019	8
bin	1028	0
bin	1037	0
bin	1046	0
bin	1055	0
bin	1064	0
bin	1073	0
bin	1082	0
bin	1091	0
bin	1100	0
bin	1109	0
bin	1118	0
bin	1127	0
bin	1136	0
bin	1145	0
bin	1154	0
bin	1163	0
bin	1172	0
bin	1181	0
bin	1190	0
bin	1199	0
bin	1208	0
bin	1217	0
bin	1226	0
bin	1235	0
bin	1244	0
bin	1253	0
bin	1262	0
bin	1271	0
bin	1280	0
bin	1289	0
bin	1298	0
bin	1307	0
bin	1316	0
bin	1325	0
bin	1334	0
bin	1343	0
bin	1352	0
bin	1361	0
bin	1370	0
bin	1379	0
bin	1388	0
bin	1397	0
bin	1406	0
scalar Net10.rte[4].queue[1] txBytes:count 0
attr interpolationmode none
attr title "transmitting packet byte length, count"
attr unit bytes
scalar Net10.rte[4].queue[1] txBytes:sum 0
attr interpolationmode none
attr title "transmitting packet byte length, sum"
attr unit bytes
statistic Net10.rte[4].queue[1] txBytes:histogram
field count 0
field mean nan
field stddev nan
field min nan
field max nan
field sum 0
field sqrsum 0
attr interpolationmode none
attr title "transmitting packet byte length, histogram"
attr unit bytes
bin	-inf	0
bin	-0.5	0
bin	-0.46666666666667	0
bin	-0.43333333333333	0
bin	-0.4	0
bin	-0.36666666666667	0
bin	-0.33333333333333	0
bin	-0.3	0
bin	-0.26666666666667	0
bin	-0.23333333333333	0
bin	-0.2	0
bin	-0.16666666666667	0
bin	-0.13333333333333	0
bin	-0.1	0
bin	-0.066666666666667	0
bin	-0.033333333333333	0
bin	0	0
bin	0.033333333333333	0
bin	0.066666666666667	0
bin	0.1	0
bin	0.13333333333333	0
bin	0.16666666666667	0
bin	0.2	0
bin	0.23333333333333	0
bin	0.26666666666667	0
bin	0.3	0
bin	0.33333333333333	0
bin	0.36666666666667	0
bin	0.4	0
bin	0.43333333333333	0
bin	0.46666666666667	0
bin	0.5	0
scalar Net10.rte[4].queue[1] busy:timeavg 0
attr interpolationmode sample-hold
attr title "server busy state, timeavg"
scalar Net10.rte[4].queue[1] qlen:timeavg 0
attr interpolationmode sample-hold
attr title "queue length, timeavg"
scalar Net10.rte[4].queue[1] qlen:max 0
attr interpolationmode sample-hold
attr title "queue length, max"
scalar Net10.rte[4].queue[1] drop:count 0
attr interpolationmode none
attr title "dropped packet byte length, count"
attr unit bytes
scalar Net10.rte[4].queue[1] drop:sum 0
attr interpolationmode none
attr title "dropped packet byte length, sum"
attr unit bytes
scalar Net10.rte[4].queue[2] rxBytes:count 1439
attr interpolationmode none
attr title "received packet byte length, count"
attr unit bytes
scalar Net10.rte[4].queue[2] rxBytes:sum 847543
attr interpolationmode none
attr title "received packet byte length, sum"
attr unit bytes
statistic Net10.rte[4].queue[2] rxBytes:histogram
field count 1439
field mean 588.98054204309
field stddev 257.00403369328
field min 128
field max 1023
field sum 847543
field sqrsum 594167779
attr interpolationmode none
attr title "received packet byte length, histogram"
attr unit bytes
bin	-inf	0
bin	-318	0
bin	-309	0
bin	-300	0
bin	-291	0
bin	-282	0
bin	-273	0
bin	-264	0
bin	-255	0
bin	-246	0
bin	-237	0
bin	-228	0
bin	-219	0
bin	-210	0
bin	-201	0
bin	-192	0
bin	-183	0
bin	-174	0
bin	-165	0
bin	-156	0
bin	-147	0
[...]
bin	685	4
bin	694	2
bin	703	5
bin	712	5
bin	721	2
bin	730	1
bin	739	3
bin	748	1
bin	757	1
bin	766	5
bin	775	3
bin	784	2
bin	793	4
bin	802	3
bin	811	5
bin	820	1
bin	829	5
bin	838	4
bin	847	3
bin	856	3
bin	865	2
bin	874	5
bin	883	0
bin	892	3
bin	901	4
bin	910	4
bin	919	1
bin	928	4
bin	937	4
bin	946	5
bin	955	2
bin	964	3
bin	973	1
bin	982	2
bin	991	3
bin	1000	2
bin	1009	2
bin	1018	2
bin	1027	0
bin	1036	0
bin	1045	0
bin	1054	0
bin	1063	0
bin	1072	0
bin	1081	0
bin	1090	0
bin	1099	0
bin	1108	0
bin	1117	0
bin	1126	0
bin	1135	0
bin	1144	0
bin	1153	0
bin	1162	0
bin	1171	0
bin	1180	0
bin	1189	0
bin	1198	0
bin	1207	0
bin	1216	0
bin	1225	0
bin	1234	0
bin	1243	0
bin	1252	0
bin	1261	0
bin	1270	0
bin	1279	0
bin	1288	0
bin	1297	0
bin	1306	0
bin	1315	0
bin	1324	0
bin	1333	0
bin	1342	0
bin	1351	0
bin	1360	0
bin	1369	0
bin	1378	0
bin	1387	0
bin	1396	0
bin	1405	0
bin	1414	0
bin	1423	0
bin	1432	0
bin	1441	0
bin	1450	0
scalar Net10.rte[8].queue[1] busy:timeavg 0.0014858844964919
attr interpolationmode sample-hold
attr title "server busy state, timeavg"
scalar Net10.rte[8].queue[1] qlen:timeavg 1.0453533702181e-007
attr interpolationmode sample-hold
attr title "queue length, timeavg"
scalar Net10.rte[8].queue[1] qlen:max 1
attr interpolationmode sample-hold
attr title "queue length, max"
scalar Net10.rte[8].queue[1] drop:count 0
attr interpolationmode none
attr title "dropped packet byte length, count"
attr unit bytes
scalar Net10.rte[8].queue[1] drop:sum 0
attr interpolationmode none
attr title "dropped packet byte length, sum"
attr unit bytes
scalar Net10.rte[8].queue[2] rxBytes:count 904
attr interpolationmode none
attr title "received packet byte length, count"
attr unit bytes
scalar Net10.rte[8].queue[2] rxBytes:sum 525572
attr interpolationmode none
attr title "received packet byte length, sum"
attr unit bytes
statistic Net10.rte[8].queue[2] rxBytes:histogram
field count 904
field mean 581.38495575221
field stddev 264.74285573491
field min 129
field max 1023
field sum 525572
field sqrsum 368849822
attr interpolationmode none
attr title "received packet byte length, histogram"
attr unit bytes
bin	-inf	0
bin	-287	0
bin	-278	0
bin	-269	0
bin	-260	0
bin	-251	0
bin	-242	0
bin	-233	0
bin	-224	0
bin	-215	0
bin	-206	0
bin	-197	0
bin	-188	0
bin	-179	0
bin	-170	0
bin	-161	0
bin	-152	0
bin	-143	0
bin	-134	0
bin	-125	0
bin	-116	0
bin	-107	0
bin	-98	0
bin	-89	0
bin	-80	0
bin	-71	0
bin	-62	0
bin	-53	0
bin	-44	0
bin	-35	0
bin	-26	0
bin	-17	0
bin	-8	0
bin	1	0
bin	10	0
bin	19	0
bin	28	0
bin	37	0
bin	46	0
bin	55	0
bin	64	0
bin	73	0
bin	82	0
bin	91	0
bin	100	0
bin	109	0
bin	118	0
bin	127	6
bin	136	7
bin	145	9
bin	154	14
bin	163	11
bin	172	6
bin	181	5
bin	190	14
bin	199	11
bin	208	7
bin	217	16
bin	226	7
bin	235	6
bin	244	6
bin	253	8
bin	262	15
bin	271	8
bin	280	13
bin	289	9
bin	298	8
bin	307	9
bin	316	11
bin	325	7
bin	334	6
bin	343	6
bin	352	17
bin	361	10
bin	370	8
bin	379	6
bin	388	7
bin	397	13
bin	406	6
bin	415	3
bin	424	12
bin	433	12
bin	442	9
bin	451	6
bin	460	3
bin	469	6
bin	478	14
bin	487	9
bin	496	10
bin	505	6
bin	514	13
bin	523	6
bin	532	10
bin	541	5
bin	550	11
bin	559	8
bin	568	11
bin	577	12
bin	586	6
bin	595	11
bin	604	10
bin	613	8
bin	622	7
bin	631	10
bin	640	9
bin	649	11
bin	658	7
bin	667	15
bin	676	5
bin	685	5
bin	694	12
bin	703	4
bin	712	8
bin	721	7
bin	730	8
bin	739	10
bin	748	9
bin	757	9
bin	766	10
bin	775	7
bin	784	4
bin	793	8
bin	802	15
bin	811	5
bin	820	11
bin	829	7
bin	838	6
bin	847	9
bin	856	10
bin	865	8
bin	874	16
bin	883	10
bin	892	10
bin	901	10
bin	910	8
bin	919	13
bin	928	8
bin	937	13
bin	946	10
bin	955	7
bin	964	8
bin	973	10
bin	982	9
bin	991	11
bin	1000	15
bin	1009	8
bin	1018	9
bin	1027	0
bin	1036	0
bin	1045	0
bin	1054	0
bin	1063	0
bin	1072	0
bin	1081	0
bin	1090	0
bin	1099	0
bin	1108	0
bin	1117	0
bin	1126	0
bin	1135	0
bin	1144	0
bin	1153	0
bin	1162	0
bin	1171	0
bin	1180	0
bin	1189	0
bin	1198	0
bin	1207	0
bin	1216	0
bin	1225	0
bin	1234	0
bin	1243	0
bin	1252	0
bin	1261	0
bin	1270	0
bin	1279	0
bin	1288	0
bin	1297	0
bin	1306	0
bin	1315	0
bin	1324	0
bin	1333	0
bin	1342	0
bin	1351	0
bin	1360	0
bin	1369	0
bin	1378	0
bin	1387	0
bin	1396	0
bin	1405	0
bin	1414	0
bin	1423	0
bin	1432	0
bin	1441	0
scalar Net10.rte[8].queue[2] txBytes:count 342
attr interpolationmode none
attr title "transmitting packet byte length, count"
attr unit bytes
scalar Net10.rte[8].queue[2] txBytes:sum 197095
attr interpolationmode none
attr title "transmitting packet byte length, sum"
attr unit bytes
statistic Net10.rte[8].queue[2] txBytes:histogram
field count 342
field mean 576.30116959064
field stddev 247.55451415119
field min 131
field max 1017
field sum 197095
field sqrsum 134483663
attr interpolationmode none
attr title "transmitting packet byte length, histogram"
attr unit bytes
bin	-inf	0
bin	-313	0
bin	-304	0
bin	-295	0
bin	-286	0
bin	-277	0
bin	-268	0
bin	-259	0
bin	-250	0
bin	-241	0
bin	-232	0
bin	-223	0
bin	-214	0
bin	-205	0
bin	-196	0
bin	-187	0
bin	-178	0
bin	-169	0
bin	-160	0
bin	-151	0
bin	-142	0
bin	-133	0
bin	-124	0
bin	-115	0
bin	-106	0
bin	-97	0
bin	-88	0
bin	-79	0
bin	-70	0
bin	-61	0
bin	-52	0
bin	-43	0
bin	-34	0
bin	-25	0
bin	-16	0
bin	-7	0
bin	2	0
bin	11	0
bin	20	0
bin	29	0
bin	38	0
bin	47	0
bin	56	0
bin	65	0
bin	74	0
bin	83	0
bin	92	0
bin	101	0
bin	110	0
bin	119	0
bin	128	2
bin	137	5
bin	146	4
bin	155	3
bin	164	5
bin	173	2
bin	182	2
bin	191	3
bin	200	3
bin	209	3
bin	218	7
bin	227	4
bin	236	3
bin	245	2
bin	254	3
bin	263	2
bin	272	2
bin	281	3
bin	290	1
bin	299	5
bin	308	3
bin	317	4
bin	326	4
bin	335	4
bin	344	3
bin	353	2
bin	362	2
bin	371	6
bin	380	2
bin	389	4
bin	398	4
bin	407	4
bin	416	3
bin	425	3
bin	434	3
bin	443	2
bin	452	6
bin	461	2
bin	470	1
bin	479	2
bin	488	3
bin	497	4
bin	506	1
bin	515	2
bin	524	5
bin	533	5
bin	542	1
bin	551	4
bin	560	2
bin	569	3
bin	578	5
bin	587	5
bin	596	7
bin	605	8
bin	614	2
bin	623	3
bin	632	1
bin	641	5
bin	650	4
bin	659	6
bin	668	4
bin	677	4
bin	686	8
bin	695	3
bin	704	2
bin	713	6
bin	722	0
bin	731	1
bin	740	3
bin	749	3
bin	758	4
bin	767	8
bin	776	9
bin	785	5
bin	794	5
bin	803	4
bin	812	4
bin	821	5
bin	830	4
bin	839	5
bin	848	0
bin	857	1
bin	866	2
bin	875	6
bin	884	5
bin	893	2
bin	902	5
bin	911	4
bin	920	1
bin	929	4
bin	938	4
bin	947	0
bin	956	2
bin	965	3
bin	974	3
bin	983	2
bin	992	1
bin	1001	4
bin	1010	2
bin	1019	0
bin	1028	0
bin	1037	0
bin	1046	0
bin	1055	0
bin	1064	0
bin	1073	0
bin	1082	0
bin	1091	0
bin	1100	0
bin	1109	0
bin	1118	0
bin	1127	0
bin	1136	0
bin	1145	0
bin	1154	0
bin	1163	0
bin	1172	0
bin	1181	0
bin	1190	0
bin	1199	0
bin	1208	0
bin	1217	0
bin	1226	0
bin	1235	0
bin	1244	0
bin	1253	0
bin	1262	0
bin	1271	0
bin	1280	0
bin	1289	0
bin	1298	0
bin	1307	0
bin	1316	0
bin	1325	0
bin	1334	0
bin	1343	0
bin	1352	0
bin	1361	0
bin	1370	0
bin	1379	0
bin	1388	0
bin	1397	0
bin	1406	0
bin	1415	0
bin	1424	0
bin	1433	0
bin	1442	0
bin	1451	0
bin	1460	0
scalar Net10.rte[8].queue[2] busy:timeavg 0.0017243920818921
attr interpolationmode sample-hold
attr title "server busy state, timeavg"
scalar Net10.rte[8].queue[2] qlen:timeavg 0
attr interpolationmode sample-hold
attr title "queue length, timeavg"
scalar Net10.rte[8].queue[2] qlen:max 0
attr interpolationmode sample-hold
attr title "queue length, max"
scalar Net10.rte[8].queue[2] drop:count 0
attr interpolationmode none
attr title "dropped packet byte length, count"
attr unit bytes
scalar Net10.rte[8].queue[2] drop:sum 0
attr interpolationmode none
attr title "dropped packet byte length, sum"
attr unit bytes
scalar Net10.rte[9].app hopCount:mean nan
attr interpolationmode none
attr title "hop count of arrived packets, mean"
scalar Net10.rte[9].app hopCount:max nan
attr interpolationmode none
attr title "hop count of arrived packets, max"
scalar Net10.rte[9].app endToEndDelay:mean nan
attr interpolationmode none
attr title "end-to-end delay of arrived packets, mean"
attr unit s
scalar Net10.rte[9].app endToEndDelay:max nan
attr interpolationmode none
attr title "end-to-end delay of arrived packets, max"
attr unit s
statistic Net10.rte[9].routing outputIf:histogram
field count 913
field mean 1.6527929901424
field stddev 0.47634318155871
field min 1
field max 2
field sum 1509
field sqrsum 2701
attr interpolationmode none
attr title "output interface for each routed packet, histogram"
bin	-inf	0
bin	0	0
bin	1	317
bin	2	596
bin	3	0
scalar Net10.rte[9].routing drop:count 0
attr interpolationmode none
attr title "dropped packet byte length, count"
attr unit bytes
scalar Net10.rte[9].routing drop:sum 0
attr interpolationmode none
attr title "dropped packet byte length, sum"
attr unit bytes
scalar Net10.rte[9].queue[0] rxBytes:count 0
attr interpolationmode none
attr title "received packet byte length, count"
attr unit bytes
scalar Net10.rte[9].queue[0] rxBytes:sum 0
attr interpolationmode none
attr title "received packet byte length, sum"
attr unit bytes
statistic Net10.rte[9].queue[0] rxBytes:histogram
field count 0
field mean nan
field stddev nan
field min nan
field max nan
field sum 0
field sqrsum 0
attr interpolationmode none
attr title "received packet byte length, histogram"
attr unit bytes
bin	-inf	0
bin	-0.5	0
bin	-0.46666666666667	0
bin	-0.43333333333333	0
bin	-0.4	0
bin	-0.36666666666667	0
bin	-0.33333333333333	0
bin	-0.3	0
bin	-0.26666666666667	0
bin	-0.23333333333333	0
bin	-0.2	0
bin	-0.16666666666667	0
bin	-0.13333333333333	0
bin	-0.1	0
bin	-0.066666666666667	0
bin	-0.033333333333333	0
bin	0	0
bin	0.033333333333333	0
bin	0.066666666666667	0
bin	0.1	0
bin	0.13333333333333	0
bin	0.16666666666667	0
bin	0.2	0
bin	0.23333333333333	0
bin	0.26666666666667	0
bin	0.3	0
bin	0.33333333333333	0
bin	0.36666666666667	0
bin	0.4	0
bin	0.43333333333333	0
bin	0.46666666666667	0
bin	0.5	0
scalar Net10.rte[9].queue[0] txBytes:count 0
attr interpolationmode none
attr title "transmitting packet byte length, count"
attr unit bytes
scalar Net10.rte[9].queue[0] txBytes:sum 0
attr interpolationmode none
attr title "transmitting packet byte length, sum"
attr unit bytes
statistic Net10.rte[9].queue[0] txBytes:histogram
field count 0
field mean nan
field stddev nan
field min nan
field max nan
field sum 0
field sqrsum 0
attr interpolationmode none
attr title "transmitting packet byte length, histogram"
attr unit bytes
bin	-inf	0
bin	-0.5	0
bin	-0.46666666666667	0
bin	-0.43333333333333	0
bin	-0.4	0
bin	-0.36666666666667	0
bin	-0.33333333333333	0
bin	-0.3	0
bin	-0.26666666666667	0
bin	-0.23333333333333	0
bin	-0.2	0
bin	-0.16666666666667	0
bin	-0.13333333333333	0
bin	-0.1	0
bin	-0.066666666666667	0
bin	-0.033333333333333	0
bin	0	0
bin	0.033333333333333	0
bin	0.066666666666667	0
bin	0.1	0
bin	0.13333333333333	0
bin	0.16666666666667	0
bin	0.2	0
bin	0.23333333333333	0
bin	0.26666666666667	0
bin	0.3	0
bin	0.33333333333333	0
bin	0.36666666666667	0
bin	0.4	0
bin	0.43333333333333	0
bin	0.46666666666667	0
bin	0.5	0
scalar Net10.rte[9].queue[0] busy:timeavg 0
attr interpolationmode sample-hold
attr title "server busy state, timeavg"
scalar Net10.rte[9].queue[0] qlen:timeavg 0
attr interpolationmode sample-hold
attr title "queue length, timeavg"
scalar Net10.rte[9].queue[0] qlen:max 0
attr interpolationmode sample-hold
attr title "queue length, max"
scalar Net10.rte[9].queue[0] drop:count 0
attr interpolationmode none
attr title "dropped packet byte length, count"
attr unit bytes
scalar Net10.rte[9].queue[0] drop:sum 0
attr interpolationmode none
attr title "dropped packet byte length, sum"
attr unit bytes
scalar Net10.rte[9].queue[1] rxBytes:count 0
attr interpolationmode none
attr title "received packet byte length, count"
attr unit bytes
scalar Net10.rte[9].queue[1] rxBytes:sum 0
attr interpolationmode none
attr title "received packet byte length, sum"
attr unit bytes
statistic Net10.rte[9].queue[1] rxBytes:histogram
field count 0
field mean nan
field stddev nan
field min nan
field max nan
field sum 0
field sqrsum 0
attr interpolationmode none
attr title "received packet byte length, histogram"
attr unit bytes
bin	-inf	0
bin	-0.5	0
bin	-0.46666666666667	0
bin	-0.43333333333333	0
bin	-0.4	0
bin	-0.36666666666667	0
bin	-0.33333333333333	0
bin	-0.3	0
bin	-0.26666666666667	0
bin	-0.23333333333333	0
bin	-0.2	0
bin	-0.16666666666667	0
bin	-0.13333333333333	0
bin	-0.1	0
bin	-0.066666666666667	0
bin	-0.033333333333333	0
bin	0	0
bin	0.033333333333333	0
bin	0.066666666666667	0
bin	0.1	0
bin	0.13333333333333	0
bin	0.16666666666667	0
bin	0.2	0
bin	0.23333333333333	0
bin	0.26666666666667	0
bin	0.3	0
bin	0.33333333333333	0
bin	0.36666666666667	0
bin	0.4	0
bin	0.43333333333333	0
bin	0.46666666666667	0
bin	0.5	0
scalar Net10.rte[9].queue[1] txBytes:count 317
attr interpolationmode none
attr title "transmitting packet byte length, count"
attr unit bytes
scalar Net10.rte[9].queue[1] txBytes:sum 183008
attr interpolationmode none
attr title "transmitting packet byte length, sum"
attr unit bytes
statistic Net10.rte[9].queue[1] txBytes:histogram
field count 317
field mean 577.31230283912
field stddev 248.6601951753
field min 129
field max 1021
field sum 183008
field sqrsum 125191648
attr interpolationmode none
attr title "transmitting packet byte length, histogram"
attr unit bytes
bin	-inf	0
bin	-277	0
bin	-268	0
bin	-259	0
bin	-250	0
bin	-241	0
bin	-232	0
bin	-223	0
bin	-214	0
bin	-205	0
bin	-196	0
bin	-187	0
bin	-178	0
bin	-169	0
bin	-160	0
bin	-151	0
bin	-142	0
bin	-133	0
bin	-124	0
bin	-115	0
bin	-106	0
bin	-97	0
bin	-88	0
bin	-79	0
bin	-70	0
bin	-61	0
bin	-52	0
bin	-43	0
bin	-34	0
bin	-25	0
bin	-16	0
bin	-7	0
bin	2	0
bin	11	0
bin	20	0
bin	29	0
bin	38	0
bin	47	0
bin	56	0
bin	65	0
bin	74	0
bin	83	0
bin	92	0
bin	101	0
bin	110	0
bin	119	0
bin	128	3
bin	137	0
bin	146	2
bin	155	3
bin	164	3
bin	173	7
bin	182	5
bin	191	2
bin	200	1
bin	209	4
bin	218	4
bin	227	1
bin	236	5
bin	245	2
bin	254	0
bin	263	5
bin	272	2
bin	281	2
bin	290	6
bin	299	1
bin	308	2
bin	317	2
bin	326	3
bin	335	1
bin	344	2
bin	353	2
bin	362	5
bin	371	4
bin	380	1
bin	389	6
bin	398	5
bin	407	4
bin	416	5
bin	425	4
bin	434	3
bin	443	0
bin	452	5
bin	461	6
bin	470	2
bin	479	3
bin	488	2
bin	497	4
bin	506	3
bin	515	6
bin	524	4
bin	533	2
bin	542	1
bin	551	5
bin	560	6
bin	569	5
bin	578	8
bin	587	1
bin	596	4
bin	605	5
bin	614	2
bin	623	0
bin	632	4
bin	641	2
bin	650	4
bin	659	6
bin	668	1
bin	677	1
bin	686	0
bin	695	2
bin	704	0
bin	713	2
bin	722	3
bin	731	5
bin	740	9
bin	749	3
bin	758	6
bin	767	2
bin	776	7
bin	785	4
bin	794	3
bin	803	3
bin	812	7
bin	821	4
bin	830	3
bin	839	1
bin	848	1
bin	857	6
bin	866	1
bin	875	2
bin	884	1
bin	893	3
bin	902	0
bin	911	5
bin	920	3
bin	929	7
bin	938	5
bin	947	2
bin	956	4
bin	965	1
bin	974	4
bin	983	1
bin	992	3
bin	1001	2
bin	1010	2
bin	1019	1
bin	1028	0
bin	1037	0
bin	1046	0
bin	1055	0
bin	1064	0
bin	1073	0
bin	1082	0
bin	1091	0
bin	1100	0
bin	1109	0
bin	1118	0
bin	1127	0
bin	1136	0
bin	1145	0
bin	1154	0
bin	1163	0
bin	1172	0
bin	1181	0
bin	1190	0
bin	1199	0
bin	1208	0
bin	1217	0
bin	1226	0
bin	1235	0
bin	1244	0
bin	1253	0
bin	1262	0
bin	1271	0
bin	1280	0
bin	1289	0
bin	1298	0
bin	1307	0
bin	1316	0
bin	1325	0
bin	1334	0
bin	1343	0
bin	1352	0
bin	1361	0
bin	1370	0
bin	1379	0
bin	1388	0
bin	1397	0
bin	1406	0
bin	1415	0
bin	1424	0
bin	1433	0
bin	1442	0
scalar Net10.rte[9].queue[1] busy:timeavg 0.0016011443523322
attr interpolationmode sample-hold
attr title "server busy state, timeavg"
scalar Net10.rte[9].queue[1] qlen:timeavg 8.0714024000013e-006
attr interpolationmode sample-hold
attr title "queue length, timeavg"
scalar Net10.rte[9].queue[1] qlen:max 1
attr interpolationmode sample-hold
attr title "queue length, max"
scalar Net10.rte[9].queue[1] drop:count 0
attr interpolationmode none
attr title "dropped packet byte length, count"
attr unit bytes
scalar Net10.rte[9].queue[1] drop:sum 0
attr interpolationmode none
attr title "dropped packet byte length, sum"
attr unit bytes
scalar Net10.rte[9].queue[2] rxBytes:count 0
attr interpolationmode none
attr title "received packet byte length, count"
attr unit bytes
scalar Net10.rte[9].queue[2] rxBytes:sum 0
attr interpolationmode none
attr title "received packet byte length, sum"
attr unit bytes
statistic Net10.rte[9].queue[2] rxBytes:histogram
field count 0
field mean nan
field stddev nan
field min nan
field max nan
field sum 0
field sqrsum 0
attr interpolationmode none
attr title "received packet byte length, histogram"
attr unit bytes
bin	-inf	0
bin	-0.5	0
bin	-0.46666666666667	0
bin	-0.43333333333333	0
bin	-0.4	0
bin	-0.36666666666667	0
bin	-0.33333333333333	0
bin	-0.3	0
bin	-0.26666666666667	0
bin	-0.23333333333333	0
bin	-0.2	0
bin	-0.16666666666667	0
bin	-0.13333333333333	0
bin	-0.1	0
bin	-0.066666666666667	0
bin	-0.033333333333333	0
bin	0	0
bin	0.033333333333333	0
bin	0.066666666666667	0
bin	0.1	0
bin	0.13333333333333	0
bin	0.16666666666667	0
bin	0.2	0
bin	0.23333333333333	0
bin	0.26666666666667	0
bin	0.3	0
bin	0.33333333333333	0
bin	0.36666666666667	0
bin	0.4	0
bin	0.43333333333333	0
bin	0.46666666666667	0
bin	0.5	0
scalar Net10.rte[9].queue[2] txBytes:count 596
attr interpolationmode none
attr title "transmitting packet byte length, count"
attr unit bytes
scalar Net10.rte[9].queue[2] txBytes:sum 342081
attr interpolationmode none
attr title "transmitting packet byte length, sum"
attr unit bytes
statistic Net10.rte[9].queue[2] txBytes:histogram
field count 596
field mean 573.96140939597
field stddev 261.74576834738
field min 132
field max 1023
field sum 342081
field sqrsum 237105247
attr interpolationmode none
attr title "transmitting packet byte length, histogram"
attr unit bytes
bin	-inf	0
bin	-293	0
bin	-284	0
bin	-275	0
bin	-266	0
bin	-257	0
bin	-248	0
bin	-239	0
bin	-230	0
bin	-221	0
bin	-212	0
bin	-203	0
bin	-194	0
bin	-185	0
bin	-176	0
bin	-167	0
bin	-158	0
bin	-149	0
bin	-140	0
bin	-131	0
bin	-122	0
bin	-113	0
bin	-104	0
bin	-95	0
bin	-86	0
bin	-77	0
bin	-68	0
bin	-59	0
bin	-50	0
bin	-41	0
bin	-32	0
bin	-23	0
bin	-14	0
bin	-5	0
bin	4	0
bin	13	0
bin	22	0
bin	31	0
bin	40	0
bin	49	0
bin	58	0
bin	67	0
bin	76	0
bin	85	0
bin	94	0
bin	103	0
bin	112	0
bin	121	0
bin	130	5
bin	139	9
bin	148	6
bin	157	12
bin	166	8
bin	175	2
bin	184	4
bin	193	9
bin	202	6
bin	211	6
bin	220	4
bin	229	12
bin	238	5
bin	247	6
bin	256	12
bin	265	5
bin	274	5
bin	283	4
bin	292	4
bin	301	5
bin	310	6
bin	319	4
bin	328	2
bin	337	9
bin	346	5
bin	355	1
bin	364	5
bin	373	5
bin	382	5
bin	391	9
bin	400	6
bin	409	10
bin	418	7
bin	427	4
bin	436	3
bin	445	12
bin	454	8
bin	463	4
bin	472	1
bin	481	6
bin	490	6
bin	499	4
bin	508	8
bin	517	10
bin	526	7
bin	535	5
bin	544	5
bin	553	4
bin	562	3
bin	571	5
bin	580	2
bin	589	2
bin	598	6
bin	607	6
bin	616	8
bin	625	8
bin	634	2
bin	643	4
bin	652	5
bin	661	12
bin	670	8
bin	679	6
bin	688	7
bin	697	6
bin	706	8
bin	715	8
bin	724	6
bin	733	9
bin	742	4
bin	751	9
bin	760	5
bin	769	4
bin	778	8
bin	787	6
bin	796	5
bin	805	6
bin	814	6
bin	823	6
bin	832	4
bin	841	8
bin	850	5
bin	859	8
bin	868	5
bin	877	5
bin	886	5
bin	895	6
bin	904	4
bin	913	7
bin	922	8
bin	931	9
bin	940	5
bin	949	6
bin	958	2
bin	967	6
bin	976	7
bin	985	8
bin	994	5
bin	1003	6
bin	1012	5
bin	1021	2
bin	1030	0
bin	1039	0
bin	1048	0
bin	1057	0
bin	1066	0
bin	1075	0
bin	1084	0
bin	1093	0
bin	1102	0
bin	1111	0
bin	1120	0
bin	1129	0
bin	1138	0
bin	1147	0
bin	1156	0
bin	1165	0
bin	1174	0
bin	1183	0
bin	1192	0
bin	1201	0
bin	1210	0
bin	1219	0
bin	1228	0
bin	1237	0
bin	1246	0
bin	1255	0
bin	1264	0
bin	1273	0
bin	1282	0
bin	1291	0
bin	1300	0
bin	1309	0
bin	1318	0
bin	1327	0
bin	1336	0
bin	1345	0
bin	1354	0
bin	1363	0
bin	1372	0
bin	1381	0
bin	1390	0
bin	1399	0
bin	1408	0
bin	1417	0
bin	1426	0
bin	1435	0
bin	1444	0
scalar Net10.rte[9].queue[2] busy:timeavg 0.0029928804270313
attr interpolationmode sample-hold
attr title "server busy state, timeavg"
scalar Net10.rte[9].queue[2] qlen:timeavg 2.5574497385765e-006
attr interpolationmode sample-hold
attr title "queue length, timeavg"
scalar Net10.rte[9].queue[2] qlen:max 1
attr interpolationmode sample-hold
attr title "queue length, max"
scalar Net10.rte[9].queue[2] drop:count 0
attr interpolationmode none
attr title "dropped packet byte length, count"
attr unit bytes
scalar Net10.rte[9].queue[2] drop:sum 0
attr interpolationmode none
attr title "dropped packet byte length, sum"
attr unit bytes

